<?xml version="1.0" encoding="ISO-8859-1"?>
<!--
Problem Description:
	A 10x5 element shell sheet has its left end nodes constrained in x,y,z and its
	right end nodes in y,z with an x-displacement of 1 unit at time t=1 on its right
	end nodes.
Main Features:
	Shells
Secondary Features:
	
Materials:
	Veronda-Westmann
Degrees of Freedom: 330
Results:
	Steps Completed: 10
	Equilibrium Iterations: 57
	Right Hand Evaluations: 74
	Siffness Reformations: 10
	Other:
		The sheet has a maximum contraction in the y-direction of 0.0923 at time t=1.
Comments:
	
-->
<febio_spec version="1.0">
	<Control>
		<title>Uni-axial Stetch</title>
		<time_steps>10</time_steps>
		<step_size>0.1</step_size>
		<max_refs>15</max_refs>
		<max_ups>10</max_ups>
		<dtol>0.001</dtol>
		<etol>0.01</etol>
		<rtol>1e+010</rtol>
		<lstol>0.9</lstol>
		<time_stepper>
			<dtmin>0.01</dtmin>
			<dtmax>0.1</dtmax>
			<max_retries>5</max_retries>
			<opt_iter>10</opt_iter>
		</time_stepper>
	</Control>
	<Material>
		<material id="1" name="Material 1" type="Veronda-Westmann">
			<c1>1</c1>
			<c2>0.5</c2>
			<k>100</k>
		</material>
	</Material>
	<Geometry>
		<Nodes>
			<node id="1">-1.0000000e+000,-5.0000000e-001, 0.0000000e+000</node>
			<node id="2">-1.0000000e+000,-3.0000000e-001, 0.0000000e+000</node>
			<node id="3">-1.0000000e+000,-1.0000000e-001, 0.0000000e+000</node>
			<node id="4">-1.0000000e+000, 1.0000000e-001, 0.0000000e+000</node>
			<node id="5">-1.0000000e+000, 3.0000000e-001, 0.0000000e+000</node>
			<node id="6">-1.0000000e+000, 5.0000000e-001, 0.0000000e+000</node>
			<node id="7">-8.0000000e-001,-5.0000000e-001, 0.0000000e+000</node>
			<node id="8">-8.0000000e-001,-3.0000000e-001, 0.0000000e+000</node>
			<node id="9">-8.0000000e-001,-1.0000000e-001, 0.0000000e+000</node>
			<node id="10">-8.0000000e-001, 1.0000000e-001, 0.0000000e+000</node>
			<node id="11">-8.0000000e-001, 3.0000000e-001, 0.0000000e+000</node>
			<node id="12">-8.0000000e-001, 5.0000000e-001, 0.0000000e+000</node>
			<node id="13">-6.0000000e-001,-5.0000000e-001, 0.0000000e+000</node>
			<node id="14">-6.0000000e-001,-3.0000000e-001, 0.0000000e+000</node>
			<node id="15">-6.0000000e-001,-1.0000000e-001, 0.0000000e+000</node>
			<node id="16">-6.0000000e-001, 1.0000000e-001, 0.0000000e+000</node>
			<node id="17">-6.0000000e-001, 3.0000000e-001, 0.0000000e+000</node>
			<node id="18">-6.0000000e-001, 5.0000000e-001, 0.0000000e+000</node>
			<node id="19">-4.0000000e-001,-5.0000000e-001, 0.0000000e+000</node>
			<node id="20">-4.0000000e-001,-3.0000000e-001, 0.0000000e+000</node>
<!-- ... 46 like lines cut -->
		</Nodes>
		<Elements>
			<quad4 id="1" mat="1">     1,     7,     8,     2</quad4>
			<quad4 id="2" mat="1">     2,     8,     9,     3</quad4>
			<quad4 id="3" mat="1">     3,     9,    10,     4</quad4>
			<quad4 id="4" mat="1">     4,    10,    11,     5</quad4>
			<quad4 id="5" mat="1">     5,    11,    12,     6</quad4>
			<quad4 id="6" mat="1">     7,    13,    14,     8</quad4>
			<quad4 id="7" mat="1">     8,    14,    15,     9</quad4>
			<quad4 id="8" mat="1">     9,    15,    16,    10</quad4>
			<quad4 id="9" mat="1">    10,    16,    17,    11</quad4>
			<quad4 id="10" mat="1">    11,    17,    18,    12</quad4>
			<quad4 id="11" mat="1">    13,    19,    20,    14</quad4>
			<quad4 id="12" mat="1">    14,    20,    21,    15</quad4>
			<quad4 id="13" mat="1">    15,    21,    22,    16</quad4>
			<quad4 id="14" mat="1">    16,    22,    23,    17</quad4>
			<quad4 id="15" mat="1">    17,    23,    24,    18</quad4>
			<quad4 id="16" mat="1">    19,    25,    26,    20</quad4>
			<quad4 id="17" mat="1">    20,    26,    27,    21</quad4>
			<quad4 id="18" mat="1">    21,    27,    28,    22</quad4>
			<quad4 id="19" mat="1">    22,    28,    29,    23</quad4>
			<quad4 id="20" mat="1">    23,    29,    30,    24</quad4>
<!-- ... 30 like lines cut -->
		</Elements>
		<ElementData>
			<element id="1">
				<thickness>0.01,0.01,0.01,0.01</thickness>
			</element>
			<element id="2">
				<thickness>0.01,0.01,0.01,0.01</thickness>
			</element>
			<element id="3">
				<thickness>0.01,0.01,0.01,0.01</thickness>
			</element>
			<element id="4">
				<thickness>0.01,0.01,0.01,0.01</thickness>
			</element>
			<element id="5">
				<thickness>0.01,0.01,0.01,0.01</thickness>
			</element>
			<element id="6">
				<thickness>0.01,0.01,0.01,0.01</thickness>
			</element>
			<element id="7">
				<thickness>0.01,0.01,0.01,0.01</thickness>
			</element>
			<element id="8">
				<thickness>0.01,0.01,0.01,0.01</thickness>
			</element>
			<element id="9">
				<thickness>0.01,0.01,0.01,0.01</thickness>
			</element>
			<element id="10">
				<thickness>0.01,0.01,0.01,0.01</thickness>
			</element>
			<element id="11">
				<thickness>0.01,0.01,0.01,0.01</thickness>
			</element>
			<element id="12">
				<thickness>0.01,0.01,0.01,0.01</thickness>
			</element>
			<element id="13">
				<thickness>0.01,0.01,0.01,0.01</thickness>
			</element>
			<element id="14">
				<thickness>0.01,0.01,0.01,0.01</thickness>
			</element>
			<element id="15">
				<thickness>0.01,0.01,0.01,0.01</thickness>
			</element>
			<element id="16">
				<thickness>0.01,0.01,0.01,0.01</thickness>
			</element>
			<element id="17">
				<thickness>0.01,0.01,0.01,0.01</thickness>
			</element>
			<element id="18">
				<thickness>0.01,0.01,0.01,0.01</thickness>
			</element>
			<element id="19">
				<thickness>0.01,0.01,0.01,0.01</thickness>
			</element>
			<element id="20">
				<thickness>0.01,0.01,0.01,0.01</thickness>
			</element>
			<element id="21">
				<thickness>0.01,0.01,0.01,0.01</thickness>
			</element>
			<element id="22">
				<thickness>0.01,0.01,0.01,0.01</thickness>
			</element>
			<element id="23">
				<thickness>0.01,0.01,0.01,0.01</thickness>
			</element>
			<element id="24">
				<thickness>0.01,0.01,0.01,0.01</thickness>
			</element>
			<element id="25">
				<thickness>0.01,0.01,0.01,0.01</thickness>
			</element>
			<element id="26">
				<thickness>0.01,0.01,0.01,0.01</thickness>
			</element>
			<element id="27">
				<thickness>0.01,0.01,0.01,0.01</thickness>
			</element>
			<element id="28">
				<thickness>0.01,0.01,0.01,0.01</thickness>
			</element>
			<element id="29">
				<thickness>0.01,0.01,0.01,0.01</thickness>
			</element>
			<element id="30">
				<thickness>0.01,0.01,0.01,0.01</thickness>
			</element>
			<element id="31">
				<thickness>0.01,0.01,0.01,0.01</thickness>
			</element>
			<element id="32">
				<thickness>0.01,0.01,0.01,0.01</thickness>
			</element>
			<element id="33">
				<thickness>0.01,0.01,0.01,0.01</thickness>
			</element>
			<element id="34">
				<thickness>0.01,0.01,0.01,0.01</thickness>
			</element>
			<element id="35">
				<thickness>0.01,0.01,0.01,0.01</thickness>
			</element>
			<element id="36">
				<thickness>0.01,0.01,0.01,0.01</thickness>
			</element>
			<element id="37">
				<thickness>0.01,0.01,0.01,0.01</thickness>
			</element>
			<element id="38">
				<thickness>0.01,0.01,0.01,0.01</thickness>
			</element>
			<element id="39">
				<thickness>0.01,0.01,0.01,0.01</thickness>
			</element>
			<element id="40">
				<thickness>0.01,0.01,0.01,0.01</thickness>
			</element>
			<element id="41">
				<thickness>0.01,0.01,0.01,0.01</thickness>
			</element>
			<element id="42">
				<thickness>0.01,0.01,0.01,0.01</thickness>
			</element>
			<element id="43">
				<thickness>0.01,0.01,0.01,0.01</thickness>
			</element>
			<element id="44">
				<thickness>0.01,0.01,0.01,0.01</thickness>
			</element>
			<element id="45">
				<thickness>0.01,0.01,0.01,0.01</thickness>
			</element>
			<element id="46">
				<thickness>0.01,0.01,0.01,0.01</thickness>
			</element>
			<element id="47">
				<thickness>0.01,0.01,0.01,0.01</thickness>
			</element>
			<element id="48">
				<thickness>0.01,0.01,0.01,0.01</thickness>
			</element>
			<element id="49">
				<thickness>0.01,0.01,0.01,0.01</thickness>
			</element>
			<element id="50">
				<thickness>0.01,0.01,0.01,0.01</thickness>
			</element>
		</ElementData>
	</Geometry>
	<Boundary>
		<fix>
			<node id="1" bc="xyz"></node>
			<node id="1" bc="uvw"></node>
			<node id="2" bc="xyz"></node>
			<node id="2" bc="uvw"></node>
			<node id="3" bc="xyz"></node>
			<node id="3" bc="uvw"></node>
			<node id="4" bc="xyz"></node>
			<node id="4" bc="uvw"></node>
			<node id="5" bc="xyz"></node>
			<node id="5" bc="uvw"></node>
			<node id="6" bc="xyz"></node>
			<node id="6" bc="uvw"></node>
			<node id="61" bc="yz"></node>
			<node id="61" bc="uvw"></node>
			<node id="62" bc="yz"></node>
			<node id="62" bc="uvw"></node>
			<node id="63" bc="yz"></node>
			<node id="63" bc="uvw"></node>
			<node id="64" bc="yz"></node>
			<node id="64" bc="uvw"></node>
			<node id="65" bc="yz"></node>
			<node id="65" bc="uvw"></node>
			<node id="66" bc="yz"></node>
			<node id="66" bc="uvw"></node>
		</fix>
		<prescribe>
			<node id="61" bc="x" lc="1">1</node>
			<node id="62" bc="x" lc="1">1</node>
			<node id="63" bc="x" lc="1">1</node>
			<node id="64" bc="x" lc="1">1</node>
			<node id="65" bc="x" lc="1">1</node>
			<node id="66" bc="x" lc="1">1</node>
		</prescribe>
	</Boundary>
	<LoadData>
		<loadcurve id="1">
			<loadpoint>0,0</loadpoint>
			<loadpoint>1,1</loadpoint>
		</loadcurve>
	</LoadData>
</febio_spec>
