<?xml version="1.0" encoding="ISO-8859-1"?>
<febio_spec version="4.0">
	<Module type="solid"/>
	<Control>
		<analysis>STATIC</analysis>
		<time_steps>5</time_steps>
		<step_size>1</step_size>
		<plot_zero_state>0</plot_zero_state>
		<plot_range>0,-1</plot_range>
		<plot_level>PLOT_MAJOR_ITRS</plot_level>
		<output_level>OUTPUT_MAJOR_ITRS</output_level>
		<plot_stride>1</plot_stride>
		<adaptor_re_solve>1</adaptor_re_solve>
		<solver type="solid">
			<symmetric_stiffness>symmetric</symmetric_stiffness>
			<equation_scheme>staggered</equation_scheme>
			<equation_order>default</equation_order>
			<optimize_bw>0</optimize_bw>
			<lstol>0.9</lstol>
			<lsmin>0.01</lsmin>
			<lsiter>5</lsiter>
			<max_refs>15</max_refs>
			<check_zero_diagonal>0</check_zero_diagonal>
			<zero_diagonal_tol>0</zero_diagonal_tol>
			<force_partition>0</force_partition>
			<reform_each_time_step>1</reform_each_time_step>
			<reform_augment>0</reform_augment>
			<diverge_reform>1</diverge_reform>
			<min_residual>1e-20</min_residual>
			<max_residual>0</max_residual>
			<dtol>0.001</dtol>
			<etol>0.01</etol>
			<rtol>0</rtol>
			<rhoi>0</rhoi>
			<alpha>1</alpha>
			<beta>0.25</beta>
			<gamma>0.5</gamma>
			<logSolve>0</logSolve>
			<arc_length>0</arc_length>
			<arc_length_scale>0</arc_length_scale>
			<qn_method type="BFGS">
				<max_ups>10</max_ups>
				<max_buffer_size>0</max_buffer_size>
				<cycle_buffer>1</cycle_buffer>
				<cmax>100000</cmax>
			</qn_method>
		</solver>
	</Control>
	<Globals>
		<Constants>
			<T>0</T>
			<R>0</R>
			<Fc>0</Fc>
		</Constants>
	</Globals>
	<Material>
		<material id="1" name="Material1" type="neo-Hookean">
			<density>1</density>
			<E>1</E>
			<v>0.3</v>
		</material>
	</Material>
	<Mesh>
		<Nodes name="Object1">
			<node id="1">-0.5,-0.5,0</node>
			<node id="2">-0.5,-0.5,0.1</node>
			<node id="3">-0.5,-0.4,0</node>
			<node id="4">-0.5,-0.4,0.1</node>
			<node id="5">-0.5,-0.3,0</node>
			<node id="6">-0.5,-0.3,0.1</node>
			<node id="7">-0.5,-0.2,0</node>
			<node id="8">-0.5,-0.2,0.1</node>
			<node id="9">-0.5,-0.1,0</node>
			<node id="10">-0.5,-0.1,0.1</node>
			<node id="11">-0.5,-2.77555756e-17,0</node>
			<node id="12">-0.5,-2.77555756e-17,0.1</node>
			<node id="13">-0.5,0.1,0</node>
			<node id="14">-0.5,0.1,0.1</node>
			<node id="15">-0.5,0.2,0</node>
			<node id="16">-0.5,0.2,0.1</node>
			<node id="17">-0.5,0.3,0</node>
			<node id="18">-0.5,0.3,0.1</node>
			<node id="19">-0.5,0.4,0</node>
			<node id="20">-0.5,0.4,0.1</node>
<!-- ... 204 like lines cut -->
		</Nodes>
		<Elements type="hex8" name="Part1">
			<elem id="1">1,23,25,3,2,24,26,4</elem>
			<elem id="2">3,25,27,5,4,26,28,6</elem>
			<elem id="3">5,27,29,7,6,28,30,8</elem>
			<elem id="4">7,29,31,9,8,30,32,10</elem>
			<elem id="5">9,31,33,11,10,32,34,12</elem>
			<elem id="6">11,33,35,13,12,34,36,14</elem>
			<elem id="7">13,35,37,15,14,36,38,16</elem>
			<elem id="8">15,37,39,17,16,38,40,18</elem>
			<elem id="9">17,39,41,19,18,40,42,20</elem>
			<elem id="10">19,41,43,21,20,42,44,22</elem>
			<elem id="11">23,45,47,25,24,46,48,26</elem>
			<elem id="12">25,47,49,27,26,48,50,28</elem>
			<elem id="13">27,49,51,29,28,50,52,30</elem>
			<elem id="14">29,51,53,31,30,52,54,32</elem>
			<elem id="15">31,53,55,33,32,54,56,34</elem>
			<elem id="16">33,55,57,35,34,56,58,36</elem>
			<elem id="17">35,57,59,37,36,58,60,38</elem>
			<elem id="18">37,59,61,39,38,60,62,40</elem>
			<elem id="19">39,61,63,41,40,62,64,42</elem>
			<elem id="20">41,63,65,43,42,64,66,44</elem>
<!-- ... 64 like lines cut -->
		</Elements>
		<Surface name="FixedDisplacement2">
			<quad4 id="1">3,1,2,4</quad4>
			<quad4 id="2">5,3,4,6</quad4>
			<quad4 id="3">7,5,6,8</quad4>
			<quad4 id="4">9,7,8,10</quad4>
			<quad4 id="5">11,9,10,12</quad4>
			<quad4 id="6">13,11,12,14</quad4>
			<quad4 id="7">15,13,14,16</quad4>
			<quad4 id="8">17,15,16,18</quad4>
			<quad4 id="9">19,17,18,20</quad4>
			<quad4 id="10">21,19,20,22</quad4>
		</Surface>
		<Surface name="FixedDisplacement3">
			<quad4 id="1">203,205,206,204</quad4>
			<quad4 id="2">205,207,208,206</quad4>
			<quad4 id="3">207,209,210,208</quad4>
			<quad4 id="4">209,211,212,210</quad4>
			<quad4 id="5">211,213,214,212</quad4>
			<quad4 id="6">213,215,216,214</quad4>
			<quad4 id="7">215,217,218,216</quad4>
			<quad4 id="8">217,219,220,218</quad4>
			<quad4 id="9">219,221,222,220</quad4>
			<quad4 id="10">221,223,224,222</quad4>
		</Surface>
		<Surface name="PrescribedDisplacement1">
			<quad4 id="1">203,205,206,204</quad4>
			<quad4 id="2">205,207,208,206</quad4>
			<quad4 id="3">207,209,210,208</quad4>
			<quad4 id="4">209,211,212,210</quad4>
			<quad4 id="5">211,213,214,212</quad4>
			<quad4 id="6">213,215,216,214</quad4>
			<quad4 id="7">215,217,218,216</quad4>
			<quad4 id="8">217,219,220,218</quad4>
			<quad4 id="9">219,221,222,220</quad4>
			<quad4 id="10">221,223,224,222</quad4>
		</Surface>
		<ElementSet name="z-constraint">
			1, 2, 3, 4, 5, 6, 7, 8,
			9, 10, 11, 12, 13, 14, 15, 16,
			17, 18, 19, 20, 21, 22, 23, 24,
			25, 26, 27, 28, 29, 30, 31, 32,
			33, 34, 35, 36, 37, 38, 39, 40,
			41, 42, 43, 44, 45, 46, 47, 48,
			49, 50, 51, 52, 53, 54, 55, 56,
			57, 58, 59, 60, 61, 62, 63, 64,
			65, 66, 67, 68, 69, 70, 71, 72,
			73, 74, 75, 76, 77, 78, 79, 80,
			81, 82, 83, 84
		</ElementSet>
	</Mesh>
	<MeshDomains>
		<SolidDomain name="Part1" mat="Material1"/>
	</MeshDomains>
	<MeshAdaptor>
		<mesh_adaptor name="MeshAdaptor1" type="hex_refine2d">
			<max_iters>1</max_iters>
			<max_elements>-1</max_elements>
			<map_data>0</map_data>
			<nnc>8</nnc>
			<nsdim>3</nsdim>
			<transfer_method>0</transfer_method>
			<max_elem_refine>0</max_elem_refine>
			<max_value>0.025</max_value>
			<criterion type="relative error">
				<error>0</error>
				<data type="stress">
					<metric>0</metric>
				</data>
			</criterion>
		</mesh_adaptor>
	</MeshAdaptor>
	<Boundary>
		<bc name="z-constraint" node_set="@elem_set:z-constraint" type="zero displacement">
			<x_dof>0</x_dof>
			<y_dof>0</y_dof>
			<z_dof>1</z_dof>
		</bc>
		<bc name="FixedDisplacement2" node_set="@surface:FixedDisplacement2" type="zero displacement">
			<x_dof>1</x_dof>
			<y_dof>1</y_dof>
			<z_dof>0</z_dof>
		</bc>
		<bc name="FixedDisplacement3" node_set="@surface:FixedDisplacement3" type="zero displacement">
			<x_dof>0</x_dof>
			<y_dof>1</y_dof>
			<z_dof>0</z_dof>
		</bc>
		<bc name="PrescribedDisplacement1" node_set="@surface:PrescribedDisplacement1" type="prescribed displacement">
			<dof>x</dof>
			<value lc="1">0.1</value>
			<relative>0</relative>
		</bc>
	</Boundary>
	<LoadData>
		<load_controller id="1" name="LC1" type="loadcurve">
			<interpolate>SMOOTH</interpolate>
			<extend>CONSTANT</extend>
			<points>
				<pt>0,0</pt>
				<pt>1,1</pt>
			</points>
		</load_controller>
	</LoadData>
	<Output>
		<plotfile type="febio">
			<var type="displacement"/>
			<var type="nodal stress"/>
			<var type="relative volume"/>
			<var type="stress"/>
		</plotfile>
	</Output>
</febio_spec>
