<?xml version="1.0" encoding="ISO-8859-1"?>
<febio_spec version="4.0">
	<Module type="biphasic"/>
	<Control>
		<analysis>TRANSIENT</analysis>
		<time_steps>10</time_steps>
		<step_size>0.1</step_size>
		<plot_zero_state>0</plot_zero_state>
		<plot_range>0,-1</plot_range>
		<plot_level>PLOT_MAJOR_ITRS</plot_level>
		<output_level>OUTPUT_MAJOR_ITRS</output_level>
		<plot_stride>1</plot_stride>
		<adaptor_re_solve>1</adaptor_re_solve>
		<solver type="biphasic">
			<symmetric_stiffness>non-symmetric</symmetric_stiffness>
			<equation_scheme>staggered</equation_scheme>
			<equation_order>default</equation_order>
			<optimize_bw>0</optimize_bw>
			<lstol>0.9</lstol>
			<lsmin>0.01</lsmin>
			<lsiter>5</lsiter>
			<max_refs>50</max_refs>
			<check_zero_diagonal>0</check_zero_diagonal>
			<zero_diagonal_tol>0</zero_diagonal_tol>
			<force_partition>0</force_partition>
			<reform_each_time_step>1</reform_each_time_step>
			<reform_augment>0</reform_augment>
			<diverge_reform>1</diverge_reform>
			<min_residual>1e-20</min_residual>
			<max_residual>0</max_residual>
			<dtol>0.001</dtol>
			<etol>0.01</etol>
			<rtol>0</rtol>
			<rhoi>-2</rhoi>
			<alpha>1</alpha>
			<beta>0.25</beta>
			<gamma>0.5</gamma>
			<logSolve>0</logSolve>
			<arc_length>0</arc_length>
			<arc_length_scale>0</arc_length_scale>
			<ptol>0.01</ptol>
			<mixed_formulation>0</mixed_formulation>
			<qn_method type="BFGS">
				<max_ups>0</max_ups>
				<max_buffer_size>0</max_buffer_size>
				<cycle_buffer>1</cycle_buffer>
				<cmax>100000</cmax>
			</qn_method>
		</solver>
	</Control>
	<Globals>
		<Constants>
			<T>0</T>
			<R>0</R>
			<Fc>0</Fc>
		</Constants>
	</Globals>
	<Material>
		<material id="1" name="Material1" type="biphasic">
			<phi0>0</phi0>
			<fluid_density>1</fluid_density>
			<tau>0</tau>
			<solid type="neo-Hookean">
				<density>1</density>
				<E>1</E>
				<v>0</v>
			</solid>
			<permeability type="perm-const-iso">
				<perm>0.01</perm>
			</permeability>
		</material>
	</Material>
	<Mesh>
		<Nodes name="Object1">
			<node id="1">-0.5,-0.5,0</node>
			<node id="2">-0.5,-0.5,1</node>
			<node id="3">-0.5,0.5,0</node>
			<node id="4">-0.5,0.5,1</node>
			<node id="5">0.5,-0.5,0</node>
			<node id="6">0.5,-0.5,1</node>
			<node id="7">0.5,0.5,0</node>
			<node id="8">0.5,0.5,1</node>
			<node id="9">0.25,0.25,0.25</node>
			<node id="10">0.032352733,0.0396948008,0.301268499</node>
			<node id="11">-0.254179412,0.23506472,0.486124648</node>
			<node id="12">0.194140596,-0.225821037,0.49592701</node>
			<node id="13">-0.298569222,-0.221093326,0.775543195</node>
			<node id="14">0.0122745423,-0.0401861335,0.7359603</node>
			<node id="15">-0.0253786449,0.5,0.513382578</node>
			<node id="16">0.5,0.5,0.52275</node>
			<node id="17">0.0025,0.5,0</node>
			<node id="18">-0.5,0.5,0.5</node>
			<node id="19">-0.0025,0.5,1</node>
			<node id="20">0.5,-0.0365594647,0.585089307</node>
<!-- ... 321 like lines cut -->
		</Nodes>
		<Elements type="tet4" name="Part1">
			<elem id="1">232,276,225,65</elem>
			<elem id="2">255,137,15,328</elem>
			<elem id="3">251,159,286,215</elem>
			<elem id="4">142,123,14,98</elem>
			<elem id="5">97,174,266,223</elem>
			<elem id="6">9,127,106,240</elem>
			<elem id="7">115,301,12,148</elem>
			<elem id="8">178,132,22,241</elem>
			<elem id="9">215,251,159,112</elem>
			<elem id="10">248,175,154,116</elem>
			<elem id="11">245,95,100,117</elem>
			<elem id="12">161,185,184,211</elem>
			<elem id="13">156,17,59,138</elem>
			<elem id="14">121,136,135,181</elem>
			<elem id="15">126,114,115,301</elem>
			<elem id="16">83,204,43,4</elem>
			<elem id="17">334,239,40,102</elem>
			<elem id="18">47,126,115,174</elem>
			<elem id="19">71,169,119,202</elem>
			<elem id="20">99,240,10,178</elem>
<!-- ... 1395 like lines cut -->
		</Elements>
		<Surface name="FixedDisplacement2">
			<tri3 id="1">334,40,239</tri3>
			<tri3 id="2">46,262,81</tri3>
			<tri3 id="3">37,120,217</tri3>
			<tri3 id="4">23,313,262</tri3>
			<tri3 id="5">42,24,196</tri3>
			<tri3 id="6">120,22,222</tri3>
			<tri3 id="7">69,90,59</tri3>
			<tri3 id="8">24,250,172</tri3>
			<tri3 id="9">307,340,69</tri3>
			<tri3 id="10">196,24,172</tri3>
			<tri3 id="11">41,40,334</tri3>
			<tri3 id="12">69,59,17</tri3>
			<tri3 id="13">46,81,5</tri3>
			<tri3 id="14">217,331,21</tri3>
			<tri3 id="15">70,90,250</tri3>
			<tri3 id="16">42,196,40</tri3>
			<tri3 id="17">66,163,7</tri3>
			<tri3 id="18">163,67,35</tri3>
			<tri3 id="19">23,334,313</tri3>
			<tri3 id="20">307,69,109</tri3>
<!-- ... 40 like lines cut -->
		</Surface>
		<Surface name="FixedEffectiveFluidPressure1">
			<tri3 id="1">29,79,264</tri3>
			<tri3 id="2">80,283,279</tri3>
			<tri3 id="3">32,179,198</tri3>
			<tri3 id="4">79,86,264</tri3>
			<tri3 id="5">273,282,198</tri3>
			<tri3 id="6">179,19,213</tri3>
			<tri3 id="7">86,57,56</tri3>
			<tri3 id="8">283,74,279</tri3>
			<tri3 id="9">279,74,19</tri3>
			<tri3 id="10">283,8,74</tri3>
			<tri3 id="11">32,303,179</tri3>
			<tri3 id="12">53,54,259</tri3>
			<tri3 id="13">259,54,282</tri3>
			<tri3 id="14">29,264,108</tri3>
			<tri3 id="15">213,60,72</tri3>
			<tri3 id="16">282,32,198</tri3>
			<tri3 id="17">282,108,293</tri3>
			<tri3 id="18">179,279,19</tri3>
			<tri3 id="19">31,259,273</tri3>
			<tri3 id="20">330,72,91</tri3>
<!-- ... 42 like lines cut -->
		</Surface>
		<Surface name="PrescribedDisplacement1">
			<tri3 id="1">29,79,264</tri3>
			<tri3 id="2">80,283,279</tri3>
			<tri3 id="3">32,179,198</tri3>
			<tri3 id="4">79,86,264</tri3>
			<tri3 id="5">273,282,198</tri3>
			<tri3 id="6">179,19,213</tri3>
			<tri3 id="7">86,57,56</tri3>
			<tri3 id="8">283,74,279</tri3>
			<tri3 id="9">279,74,19</tri3>
			<tri3 id="10">283,8,74</tri3>
			<tri3 id="11">32,303,179</tri3>
			<tri3 id="12">53,54,259</tri3>
			<tri3 id="13">259,54,282</tri3>
			<tri3 id="14">29,264,108</tri3>
			<tri3 id="15">213,60,72</tri3>
			<tri3 id="16">282,32,198</tri3>
			<tri3 id="17">282,108,293</tri3>
			<tri3 id="18">179,279,19</tri3>
			<tri3 id="19">31,259,273</tri3>
			<tri3 id="20">330,72,91</tri3>
<!-- ... 42 like lines cut -->
		</Surface>
		<ElementSet name="FixedDisplacement1">
			1, 2, 3, 4, 5, 6, 7, 8,
			9, 10, 11, 12, 13, 14, 15, 16,
			17, 18, 19, 20, 21, 22, 23, 24,
			25, 26, 27, 28, 29, 30, 31, 32,
			33, 34, 35, 36, 37, 38, 39, 40,
			41, 42, 43, 44, 45, 46, 47, 48,
			49, 50, 51, 52, 53, 54, 55, 56,
			57, 58, 59, 60, 61, 62, 63, 64,
			65, 66, 67, 68, 69, 70, 71, 72,
			73, 74, 75, 76, 77, 78, 79, 80,
			81, 82, 83, 84, 85, 86, 87, 88,
			89, 90, 91, 92, 93, 94, 95, 96,
			97, 98, 99, 100, 101, 102, 103, 104,
			105, 106, 107, 108, 109, 110, 111, 112,
			113, 114, 115, 116, 117, 118, 119, 120,
			121, 122, 123, 124, 125, 126, 127, 128,
			129, 130, 131, 132, 133, 134, 135, 136,
			137, 138, 139, 140, 141, 142, 143, 144,
			145, 146, 147, 148, 149, 150, 151, 152,
			153, 154, 155, 156, 157, 158, 159, 160,
<!-- ... 157 like lines cut -->
		</ElementSet>
	</Mesh>
	<MeshDomains>
		<SolidDomain name="Part1" mat="Material1"/>
	</MeshDomains>
	<MeshAdaptor>
		<mesh_adaptor name="MeshAdaptor1" type="mmg_remesh">
			<max_iters>5</max_iters>
			<max_elements>0</max_elements>
			<map_data>0</map_data>
			<nnc>8</nnc>
			<nsdim>3</nsdim>
			<transfer_method>1</transfer_method>
			<min_element_size>0</min_element_size>
			<hausdorff>0.01</hausdorff>
			<gradation>1.3</gradation>
			<relative_size>1</relative_size>
			<mesh_coarsen>0</mesh_coarsen>
			<normalize_data>0</normalize_data>
			<criterion type="relative error">
				<error>0.1</error>
				<data type="stress">
					<metric>0</metric>
				</data>
			</criterion>
		</mesh_adaptor>
	</MeshAdaptor>
	<Boundary>
		<bc name="FixedDisplacement1" node_set="@elem_set:FixedDisplacement1" type="zero displacement">
			<x_dof>1</x_dof>
			<y_dof>1</y_dof>
			<z_dof>0</z_dof>
		</bc>
		<bc name="FixedDisplacement2" node_set="@surface:FixedDisplacement2" type="zero displacement">
			<x_dof>0</x_dof>
			<y_dof>0</y_dof>
			<z_dof>1</z_dof>
		</bc>
		<bc name="FixedEffectiveFluidPressure1" node_set="@surface:FixedEffectiveFluidPressure1" type="zero fluid pressure"/>
		<bc name="PrescribedDisplacement1" node_set="@surface:PrescribedDisplacement1" type="prescribed displacement">
			<dof>z</dof>
			<value lc="1">-0.05</value>
			<relative>0</relative>
		</bc>
	</Boundary>
	<LoadData>
		<load_controller id="1" name="LC1" type="loadcurve">
			<interpolate>SMOOTH</interpolate>
			<extend>CONSTANT</extend>
			<points>
				<pt>0,0</pt>
				<pt>0.5,1</pt>
			</points>
		</load_controller>
	</LoadData>
	<Output>
		<plotfile type="febio">
			<var type="displacement"/>
			<var type="stress"/>
			<var type="effective fluid pressure"/>
			<var type="fluid flux"/>
			<var type="solid stress"/>
			<var type="stress error"/>
		</plotfile>
	</Output>
</febio_spec>
