<?xml version="1.0" encoding="ISO-8859-1"?>
<febio_spec version="4.0">
	<Module type="solid"/>
	<Globals>
		<Constants>
			<T>0</T>
			<R>0</R>
			<Fc>0</Fc>
		</Constants>
	</Globals>
	<Material>
		<material id="1" name="Material1" type="coupled Mooney-Rivlin">
			<density>1</density>
			<c1>1</c1>
			<c2>0</c2>
			<k>100</k>
		</material>
	</Material>
	<Mesh>
		<Nodes name="Object1">
			<node id="1">-0.116224865,0.0307790475,0</node>
			<node id="2">-0.708232742,-0.706158833,0</node>
			<node id="3">0,-1,0</node>
			<node id="4">0.827553169,-0.076502526,2</node>
			<node id="5">1,0,0</node>
			<node id="6">0.680150408,0.733416319,0</node>
			<node id="7">0,1,0</node>
			<node id="8">-1,0,0</node>
			<node id="9">-0.714896615,-0.699376835,2</node>
			<node id="10">0,-1,2</node>
			<node id="11">1,0,2</node>
			<node id="12">0,1,2</node>
			<node id="13">-0.673249631,0.739952242,2</node>
			<node id="14">-1,0,2</node>
			<node id="15">-0.160420202,-0.365385328,0</node>
			<node id="16">-0.0262255334,0.893813902,0.0753652743</node>
			<node id="17">0.0159738275,-0.295743511,2</node>
			<node id="18">0.358941987,-0.329188882,2</node>
			<node id="19">0.424149728,0.552796117,1.89645134</node>
			<node id="20">0.238594591,-0.0921574146,2</node>
<!-- ... 686 like lines cut -->
		</Nodes>
		<Elements type="tet4" name="Part1">
			<elem id="1">288,385,108,165</elem>
			<elem id="2">313,269,357,206</elem>
			<elem id="3">300,382,97,156</elem>
			<elem id="4">405,340,613,704</elem>
			<elem id="5">165,288,284,703</elem>
			<elem id="6">202,624,586,328</elem>
			<elem id="7">594,507,355,144</elem>
			<elem id="8">613,640,704,574</elem>
			<elem id="9">403,330,557,371</elem>
			<elem id="10">586,624,253,328</elem>
			<elem id="11">399,491,99,693</elem>
			<elem id="12">477,193,70,335</elem>
			<elem id="13">641,643,16,518</elem>
			<elem id="14">345,607,498,564</elem>
			<elem id="15">574,704,401,194</elem>
			<elem id="16">484,700,687,137</elem>
			<elem id="17">223,294,220,83</elem>
			<elem id="18">138,466,139,456</elem>
			<elem id="19">652,583,369,111</elem>
			<elem id="20">469,267,252,634</elem>
<!-- ... 3156 like lines cut -->
		</Elements>
		<Surface name="FixedDisplacement1">
			<tri3 id="1">1,585,15</tri3>
			<tri3 id="2">23,1,24</tri3>
			<tri3 id="3">3,624,39</tri3>
			<tri3 id="4">425,633,41</tri3>
			<tri3 id="5">146,443,460</tri3>
			<tri3 id="6">283,112,633</tri3>
			<tri3 id="7">15,666,103</tri3>
			<tri3 id="8">146,64,443</tri3>
			<tri3 id="9">1,23,22</tri3>
			<tri3 id="10">118,124,125</tri3>
			<tri3 id="11">8,460,443</tri3>
			<tri3 id="12">128,643,122</tri3>
			<tri3 id="13">125,437,187</tri3>
			<tri3 id="14">123,186,680</tri3>
			<tri3 id="15">93,112,585</tri3>
			<tri3 id="16">131,643,128</tri3>
			<tri3 id="17">125,187,118</tri3>
			<tri3 id="18">425,283,633</tri3>
			<tri3 id="19">576,132,541</tri3>
			<tri3 id="20">7,122,643</tri3>
<!-- ... 88 like lines cut -->
		</Surface>
		<Surface name="FixedDisplacement2">
			<tri3 id="1">17,84,246</tri3>
			<tri3 id="2">80,505,470</tri3>
			<tri3 id="3">696,260,246</tri3>
			<tri3 id="4">538,567,62</tri3>
			<tri3 id="5">28,684,423</tri3>
			<tri3 id="6">684,20,654</tri3>
			<tri3 id="7">20,185,17</tri3>
			<tri3 id="8">21,185,684</tri3>
			<tri3 id="9">56,319,57</tri3>
			<tri3 id="10">319,423,684</tri3>
			<tri3 id="11">260,37,251</tri3>
			<tri3 id="12">4,119,654</tri3>
			<tri3 id="13">11,679,119</tri3>
			<tri3 id="14">375,470,580</tri3>
			<tri3 id="15">21,28,593</tri3>
			<tri3 id="16">185,87,84</tri3>
			<tri3 id="17">465,538,12</tri3>
			<tri3 id="18">654,20,18</tri3>
			<tri3 id="19">375,87,409</tri3>
			<tri3 id="20">527,260,160</tri3>
<!-- ... 78 like lines cut -->
		</Surface>
		<Surface name="PrescribedDisplacement1">
			<tri3 id="1">17,84,246</tri3>
			<tri3 id="2">80,505,470</tri3>
			<tri3 id="3">696,260,246</tri3>
			<tri3 id="4">538,567,62</tri3>
			<tri3 id="5">28,684,423</tri3>
			<tri3 id="6">684,20,654</tri3>
			<tri3 id="7">20,185,17</tri3>
			<tri3 id="8">21,185,684</tri3>
			<tri3 id="9">56,319,57</tri3>
			<tri3 id="10">319,423,684</tri3>
			<tri3 id="11">260,37,251</tri3>
			<tri3 id="12">4,119,654</tri3>
			<tri3 id="13">11,679,119</tri3>
			<tri3 id="14">375,470,580</tri3>
			<tri3 id="15">21,28,593</tri3>
			<tri3 id="16">185,87,84</tri3>
			<tri3 id="17">465,538,12</tri3>
			<tri3 id="18">654,20,18</tri3>
			<tri3 id="19">375,87,409</tri3>
			<tri3 id="20">527,260,160</tri3>
<!-- ... 78 like lines cut -->
		</Surface>
	</Mesh>
	<MeshDomains>
		<SolidDomain name="Part1" mat="Material1"/>
	</MeshDomains>
	<Boundary>
		<bc name="FixedDisplacement1" node_set="@surface:FixedDisplacement1" type="zero displacement">
			<x_dof>1</x_dof>
			<y_dof>1</y_dof>
			<z_dof>1</z_dof>
		</bc>
		<bc name="FixedDisplacement2" node_set="@surface:FixedDisplacement2" type="zero displacement">
			<x_dof>1</x_dof>
			<y_dof>1</y_dof>
			<z_dof>0</z_dof>
		</bc>
		<bc name="PrescribedDisplacement1" node_set="@surface:PrescribedDisplacement1" type="prescribed displacement">
			<dof>z</dof>
			<value lc="1">-0.3</value>
			<relative>0</relative>
		</bc>
	</Boundary>
	<Step>
		<step id="1" name="Step1">
			<Control>
				<analysis>STATIC</analysis>
				<time_steps>10</time_steps>
				<step_size>0.1</step_size>
				<plot_zero_state>0</plot_zero_state>
				<plot_range>0,-1</plot_range>
				<plot_level>PLOT_MAJOR_ITRS</plot_level>
				<output_level>OUTPUT_MAJOR_ITRS</output_level>
				<plot_stride>1</plot_stride>
				<adaptor_re_solve>1</adaptor_re_solve>
				<solver type="solid">
					<symmetric_stiffness>symmetric</symmetric_stiffness>
					<equation_scheme>staggered</equation_scheme>
					<equation_order>default</equation_order>
					<optimize_bw>0</optimize_bw>
					<lstol>0.9</lstol>
					<lsmin>0.01</lsmin>
					<lsiter>5</lsiter>
					<max_refs>15</max_refs>
					<check_zero_diagonal>0</check_zero_diagonal>
					<zero_diagonal_tol>0</zero_diagonal_tol>
					<force_partition>0</force_partition>
					<reform_each_time_step>1</reform_each_time_step>
					<reform_augment>0</reform_augment>
					<diverge_reform>1</diverge_reform>
					<min_residual>1e-20</min_residual>
					<max_residual>0</max_residual>
					<dtol>0.001</dtol>
					<etol>0.01</etol>
					<rtol>0</rtol>
					<rhoi>0</rhoi>
					<alpha>1</alpha>
					<beta>0.25</beta>
					<gamma>0.5</gamma>
					<logSolve>0</logSolve>
					<arc_length>0</arc_length>
					<arc_length_scale>0</arc_length_scale>
					<qn_method type="BFGS">
						<max_ups>10</max_ups>
						<max_buffer_size>0</max_buffer_size>
						<cycle_buffer>1</cycle_buffer>
						<cmax>100000</cmax>
					</qn_method>
				</solver>
			</Control>
		</step>
		<step id="2" name="Step2">
			<Control>
				<analysis>STATIC</analysis>
				<time_steps>4</time_steps>
				<step_size>1</step_size>
				<plot_zero_state>0</plot_zero_state>
				<plot_range>0,-1</plot_range>
				<plot_level>PLOT_MAJOR_ITRS</plot_level>
				<output_level>OUTPUT_MAJOR_ITRS</output_level>
				<plot_stride>1</plot_stride>
				<adaptor_re_solve>1</adaptor_re_solve>
				<solver type="solid">
					<symmetric_stiffness>symmetric</symmetric_stiffness>
					<equation_scheme>staggered</equation_scheme>
					<equation_order>default</equation_order>
					<optimize_bw>0</optimize_bw>
					<lstol>0.9</lstol>
					<lsmin>0.01</lsmin>
					<lsiter>5</lsiter>
					<max_refs>15</max_refs>
					<check_zero_diagonal>0</check_zero_diagonal>
					<zero_diagonal_tol>0</zero_diagonal_tol>
					<force_partition>0</force_partition>
					<reform_each_time_step>1</reform_each_time_step>
					<reform_augment>0</reform_augment>
					<diverge_reform>1</diverge_reform>
					<min_residual>1e-20</min_residual>
					<max_residual>0</max_residual>
					<dtol>0.001</dtol>
					<etol>0.01</etol>
					<rtol>0</rtol>
					<rhoi>0</rhoi>
					<alpha>1</alpha>
					<beta>0.25</beta>
					<gamma>0.5</gamma>
					<logSolve>0</logSolve>
					<arc_length>0</arc_length>
					<arc_length_scale>0</arc_length_scale>
					<qn_method type="BFGS">
						<max_ups>10</max_ups>
						<max_buffer_size>0</max_buffer_size>
						<cycle_buffer>1</cycle_buffer>
						<cmax>100000</cmax>
					</qn_method>
				</solver>
			</Control>
			<MeshAdaptor>
				<mesh_adaptor name="MeshAdaptor1" type="mmg_remesh">
					<max_iters>1</max_iters>
					<max_elements>0</max_elements>
					<map_data>0</map_data>
					<nnc>8</nnc>
					<nsdim>3</nsdim>
					<transfer_method>1</transfer_method>
					<min_element_size>0</min_element_size>
					<hausdorff>0.01</hausdorff>
					<gradation>1.3</gradation>
					<relative_size>1</relative_size>
					<mesh_coarsen>0</mesh_coarsen>
					<normalize_data>0</normalize_data>
					<criterion type="math">
						<math type="math">1*(1 - (X^2+Y^2)) + (X^2+Y^2)*(0.5*(Z-1)^2 - Z*(Z - 2))</math>
					</criterion>
				</mesh_adaptor>
			</MeshAdaptor>
		</step>
	</Step>
	<LoadData>
		<load_controller id="1" name="LC1" type="loadcurve">
			<interpolate>SMOOTH</interpolate>
			<extend>CONSTANT</extend>
			<points>
				<pt>0,0</pt>
				<pt>1,1</pt>
			</points>
		</load_controller>
	</LoadData>
	<Output>
		<plotfile type="febio">
			<var type="displacement"/>
			<var type="relative volume"/>
			<var type="stress"/>
		</plotfile>
	</Output>
</febio_spec>
