<?xml version="1.0" encoding="ISO-8859-1"?>
<febio_spec version="4.0">
	<Module type="solid"/>
	<Control>
		<analysis>STATIC</analysis>
		<time_steps>10</time_steps>
		<step_size>0.1</step_size>
		<plot_zero_state>0</plot_zero_state>
		<plot_range>0,-1</plot_range>
		<plot_level>PLOT_MAJOR_ITRS</plot_level>
		<output_level>OUTPUT_MAJOR_ITRS</output_level>
		<plot_stride>1</plot_stride>
		<adaptor_re_solve>1</adaptor_re_solve>
		<solver type="solid">
			<symmetric_stiffness>symmetric</symmetric_stiffness>
			<equation_scheme>staggered</equation_scheme>
			<equation_order>default</equation_order>
			<optimize_bw>0</optimize_bw>
			<lstol>0.9</lstol>
			<lsmin>0.01</lsmin>
			<lsiter>5</lsiter>
			<max_refs>15</max_refs>
			<check_zero_diagonal>0</check_zero_diagonal>
			<zero_diagonal_tol>0</zero_diagonal_tol>
			<force_partition>0</force_partition>
			<reform_each_time_step>1</reform_each_time_step>
			<reform_augment>0</reform_augment>
			<diverge_reform>1</diverge_reform>
			<min_residual>1e-20</min_residual>
			<max_residual>0</max_residual>
			<dtol>0.001</dtol>
			<etol>0.01</etol>
			<rtol>0</rtol>
			<rhoi>0</rhoi>
			<alpha>1</alpha>
			<beta>0.25</beta>
			<gamma>0.5</gamma>
			<logSolve>0</logSolve>
			<arc_length>0</arc_length>
			<arc_length_scale>0</arc_length_scale>
			<qn_method type="BFGS">
				<max_ups>10</max_ups>
				<max_buffer_size>0</max_buffer_size>
				<cycle_buffer>1</cycle_buffer>
				<cmax>100000</cmax>
			</qn_method>
		</solver>
	</Control>
	<Globals>
		<Constants>
			<T>0</T>
			<R>0</R>
			<Fc>0</Fc>
		</Constants>
	</Globals>
	<Material>
		<material id="1" name="Material1" type="solid mixture">
			<density>1</density>
			<solid type="neo-Hookean">
				<density>1</density>
				<E>0.13</E>
				<v>0.3</v>
			</solid>
			<solid type="elastic damage">
				<density>1</density>
				<elastic type="fiber-pow-linear">
					<density>1</density>
					<E>10</E>
					<lam0>1.1</lam0>
					<beta>2.5</beta>
					<fiber type="angles">
						<theta>0</theta>
						<phi>0</phi>
					</fiber>
				</elastic>
				<damage type="CDF log-normal">
					<Dmax>1</Dmax>
					<mu>0.3</mu>
					<sigma>0.1</sigma>
				</damage>
				<criterion type="DC max normal Lagrange strain"/>
			</solid>
		</material>
	</Material>
	<Mesh>
		<Nodes name="Object01">
			<node id="1">0,0,0</node>
			<node id="2">0.54644661,0,0</node>
			<node id="3">0.9,0,0</node>
			<node id="4">1,0,0</node>
			<node id="5">1,0.3,0</node>
			<node id="6">0.9,0.3,0</node>
			<node id="7">0.54644661,0.44644661,0</node>
			<node id="8">0.4,0.8,0</node>
			<node id="9">0.4,1.8,0</node>
			<node id="10">0,1.8,0</node>
			<node id="11">0,0.8,0</node>
			<node id="12">0,0.44644661,0</node>
			<node id="13">0,0,0.1</node>
			<node id="14">0.54644661,0,0.1</node>
			<node id="15">0.9,0,0.1</node>
			<node id="16">1,0,0.1</node>
			<node id="17">1,0.3,0.1</node>
			<node id="18">0.9,0.3,0.1</node>
			<node id="19">0.54644661,0.44644661,0.1</node>
			<node id="20">0.4,0.8,0.1</node>
<!-- ... 432 like lines cut -->
		</Nodes>
		<Elements type="hex8" name="Part1">
			<elem id="1">1,25,221,58,13,32,225,59</elem>
			<elem id="2">25,26,222,221,32,31,226,225</elem>
			<elem id="3">26,27,223,222,31,30,227,226</elem>
			<elem id="4">27,28,224,223,30,29,228,227</elem>
			<elem id="5">28,2,33,224,29,14,44,228</elem>
			<elem id="6">58,221,217,57,59,225,229,60</elem>
			<elem id="7">221,222,218,217,225,226,230,229</elem>
			<elem id="8">222,223,219,218,226,227,231,230</elem>
			<elem id="9">223,224,220,219,227,228,232,231</elem>
			<elem id="10">224,33,34,220,228,44,43,232</elem>
			<elem id="11">57,217,213,56,60,229,233,61</elem>
			<elem id="12">217,218,214,213,229,230,234,233</elem>
			<elem id="13">218,219,215,214,230,231,235,234</elem>
			<elem id="14">219,220,216,215,231,232,236,235</elem>
			<elem id="15">220,34,35,216,232,43,42,236</elem>
			<elem id="16">56,213,209,55,61,233,237,62</elem>
			<elem id="17">213,214,210,209,233,234,238,237</elem>
			<elem id="18">214,215,211,210,234,235,239,238</elem>
			<elem id="19">215,216,212,211,235,236,240,239</elem>
			<elem id="20">216,35,36,212,236,42,41,240</elem>
<!-- ... 165 like lines cut -->
		</Elements>
		<NodeSet name="FixedDisplacement1">
			1, 2, 3, 4, 13, 14, 15, 16,
			25, 26, 27, 28, 29, 30, 31, 32,
			65, 66, 67, 68, 85, 86
		</NodeSet>
		<NodeSet name="FixedDisplacement2">
			1, 10, 11, 12, 13, 22, 23, 24,
			53, 54, 55, 56, 57, 58, 59, 60,
			61, 62, 63, 64, 119, 120, 121, 122,
			123, 124, 125, 126, 127, 128, 169, 170,
			171, 172, 173, 174, 175, 176, 177, 178,
			179, 180, 181, 182, 183, 184, 185, 186,
			187, 188, 189, 190, 191, 192, 193, 194,
			195, 196, 197, 198, 199, 200
		</NodeSet>
		<NodeSet name="FixedDisplacement3">
			1, 2, 3, 4, 5, 6, 7, 8,
			9, 10, 11, 12, 25, 26, 27, 28,
			33, 34, 35, 36, 37, 38, 45, 46,
			47, 48, 53, 54, 55, 56, 57, 58,
			65, 66, 69, 70, 71, 72, 73, 74,
			81, 82, 85, 87, 88, 89, 90, 91,
			92, 99, 101, 102, 103, 104, 105, 111,
			112, 113, 114, 119, 120, 121, 122, 123,
			129, 130, 131, 132, 133, 134, 135, 136,
			137, 138, 139, 140, 141, 142, 143, 144,
			161, 162, 163, 164, 169, 170, 171, 172,
			173, 174, 175, 176, 177, 178, 179, 180,
			181, 182, 183, 184, 201, 202, 203, 204,
			205, 206, 207, 208, 209, 210, 211, 212,
			213, 214, 215, 216, 217, 218, 219, 220,
			221, 222, 223, 224, 249, 250, 251, 252,
			253, 254, 255, 256, 257, 258, 259, 260,
			273, 274, 275, 276, 277, 278, 285, 286,
			287, 288, 289, 290, 291, 292, 293, 294,
			295, 296, 297, 298, 299, 300, 301, 302,
<!-- ... 9 like lines cut -->
		</NodeSet>
		<NodeSet name="PrescribedDisplacement1">
			9, 10, 21, 22, 161, 162, 163, 164,
			165, 166, 167, 168
		</NodeSet>
	</Mesh>
	<MeshDomains>
		<SolidDomain name="Part1" mat="Material1"/>
	</MeshDomains>
	<MeshAdaptor>
		<mesh_adaptor name="MeshAdaptor1" type="erosion">
			<max_iters>2</max_iters>
			<max_elems>10</max_elems>
			<sort>1</sort>
			<remove_islands>0</remove_islands>
			<criterion type="min-max filter">
				<min>1</min>
				<max>1e+37</max>
				<clamp>0</clamp>
				<data type="damage"/>
			</criterion>
		</mesh_adaptor>
	</MeshAdaptor>
	<Boundary>
		<bc name="FixedDisplacement01" node_set="FixedDisplacement1" type="zero displacement">
			<x_dof>1</x_dof>
			<y_dof>1</y_dof>
			<z_dof>1</z_dof>
		</bc>
		<bc name="FixedDisplacement02" node_set="FixedDisplacement2" type="zero displacement">
			<x_dof>1</x_dof>
			<y_dof>0</y_dof>
			<z_dof>0</z_dof>
		</bc>
		<bc name="FixedDisplacement03" node_set="FixedDisplacement3" type="zero displacement">
			<x_dof>0</x_dof>
			<y_dof>0</y_dof>
			<z_dof>1</z_dof>
		</bc>
		<bc name="PrescribedDisplacement1" node_set="PrescribedDisplacement1" type="prescribed displacement">
			<dof>y</dof>
			<value lc="1">1</value>
			<relative>0</relative>
		</bc>
	</Boundary>
	<LoadData>
		<load_controller id="1" name="LC1" type="loadcurve">
			<interpolate>SMOOTH</interpolate>
			<extend>CONSTANT</extend>
			<points>
				<pt>0,0</pt>
				<pt>1,1</pt>
			</points>
		</load_controller>
	</LoadData>
	<Output>
		<plotfile type="febio">
			<var type="displacement"/>
			<var type="stress"/>
			<var type="damage"/>
		</plotfile>
	</Output>
</febio_spec>
