<?xml version="1.0" encoding="ISO-8859-1"?>
<!--
Problem Description:
	BFSI Taylor slip problem that models Couette flow over a rigid porous layer. Tangential velocity prescribed on top of fluid layer, with no slip wall at bottom of porous domain, where an interface is shared between the two. 0 pressure and displacement throughout.
Main Features:
	BFSI
	porous solid
	permeability
	tangential velocity
Secondary Features:
	Broyden
	no ref each step
	no diverge reform
	Newtonian fluid
	PostBL
Materials:
	NeoHookean
	Poroelastic
	Newtonian
	Constant Permeability
Degrees of Freedom: 5664
Results:
	Steps Completed: 20
	Equilibrium Iterations: 50
	Right Hand Evaluations: 80
	Siffness Reformations: 1
	Other:
		The xnodal flux for node 220 at time t=2 is 0.834029
Comments:
	Similar examples seen in results of
       Shim JJ, Maas SA, Weiss JA, Ateshian GA. (2021) J Biomech Eng, In Press.
-->
<febio_spec version="4.0">
	<Module type="fluid-FSI"/>
	<Control>
		<analysis>DYNAMIC</analysis>
		<time_steps>20</time_steps>
		<step_size>0.1</step_size>
		<plot_zero_state>0</plot_zero_state>
		<plot_range>0,-1</plot_range>
		<plot_level>PLOT_MAJOR_ITRS</plot_level>
		<output_level>OUTPUT_MAJOR_ITRS</output_level>
		<plot_stride>1</plot_stride>
		<adaptor_re_solve>1</adaptor_re_solve>
		<time_stepper type="default">
			<max_retries>9</max_retries>
			<opt_iter>50</opt_iter>
			<dtmin>0.01</dtmin>
			<dtmax>0.1</dtmax>
			<aggressiveness>0</aggressiveness>
			<cutback>0.5</cutback>
			<dtforce>0</dtforce>
		</time_stepper>
		<solver type="fluid-FSI">
			<symmetric_stiffness>non-symmetric</symmetric_stiffness>
			<equation_scheme>staggered</equation_scheme>
			<equation_order>default</equation_order>
			<optimize_bw>0</optimize_bw>
			<lstol>0.9</lstol>
			<lsmin>0.01</lsmin>
			<lsiter>5</lsiter>
			<max_refs>5</max_refs>
			<check_zero_diagonal>0</check_zero_diagonal>
			<zero_diagonal_tol>0</zero_diagonal_tol>
			<force_partition>0</force_partition>
			<reform_each_time_step>0</reform_each_time_step>
			<reform_augment>0</reform_augment>
			<diverge_reform>0</diverge_reform>
			<min_residual>1e-29</min_residual>
			<max_residual>1e+20</max_residual>
			<dtol>0</dtol>
			<vtol>0.001</vtol>
			<ftol>0</ftol>
			<etol>0.01</etol>
			<rtol>0.001</rtol>
			<rhoi>0</rhoi>
			<predictor>0</predictor>
			<min_volume_ratio>0</min_volume_ratio>
			<order>2</order>
			<qn_method type="Broyden">
				<max_ups>50</max_ups>
				<max_buffer_size>0</max_buffer_size>
				<cycle_buffer>1</cycle_buffer>
				<cmax>100000</cmax>
			</qn_method>
		</solver>
	</Control>
	<Globals>
		<Constants>
			<T>0</T>
			<R>0</R>
			<Fc>0</Fc>
		</Constants>
	</Globals>
	<Material>
		<material id="1" name="Material1" type="biphasic-FSI">
			<phi0>0</phi0>
			<solid type="neo-Hookean">
				<density>0</density>
				<E>1e-09</E>
				<v>0</v>
			</solid>
			<fluid>
				<density>0</density>
				<k>1e+12</k>
				<viscous type="Newtonian fluid">
					<kappa>0</kappa>
					<mu>1</mu>
				</viscous>
			</fluid>
			<permeability type="perm-const-iso">
				<perm>0</perm>
			</permeability>
		</material>
		<material id="2" name="Material2" type="biphasic-FSI">
			<phi0>0.5</phi0>
			<solid type="neo-Hookean">
				<density>0</density>
				<E>6.75e+09</E>
				<v>0.125</v>
			</solid>
			<fluid>
				<density>0</density>
				<k>1e+12</k>
				<viscous type="Newtonian fluid">
					<kappa>0</kappa>
					<mu>0.25</mu>
				</viscous>
			</fluid>
			<permeability type="perm-const-iso">
				<perm>1</perm>
			</permeability>
		</material>
	</Material>
	<Mesh>
		<Nodes name="Object01">
			<node id="1">-0.5,0.025,0</node>
			<node id="2">-0.5,0.025,0.1</node>
			<node id="3">-0.5,0.05,0</node>
			<node id="4">-0.5,0.05,0.1</node>
			<node id="5">-0.5,0.075,0</node>
			<node id="6">-0.5,0.075,0.1</node>
			<node id="7">-0.5,0.1,0</node>
			<node id="8">-0.5,0.1,0.1</node>
			<node id="9">-0.5,0.125,0</node>
			<node id="10">-0.5,0.125,0.1</node>
			<node id="11">-0.5,0.15,0</node>
			<node id="12">-0.5,0.15,0.1</node>
			<node id="13">-0.5,0.175,0</node>
			<node id="14">-0.5,0.175,0.1</node>
			<node id="15">-0.5,0.2,0</node>
			<node id="16">-0.5,0.2,0.1</node>
			<node id="17">-0.5,0.225,0</node>
			<node id="18">-0.5,0.225,0.1</node>
			<node id="19">-0.5,0.25,0</node>
			<node id="20">-0.5,0.25,0.1</node>
<!-- ... 2038 like lines cut -->
		</Nodes>
		<Elements type="hex8" name="Part3">
			<elem id="1">689,21,23,1,690,22,24,2</elem>
			<elem id="2">1,23,25,3,2,24,26,4</elem>
			<elem id="3">3,25,27,5,4,26,28,6</elem>
			<elem id="4">5,27,29,7,6,28,30,8</elem>
			<elem id="5">7,29,31,9,8,30,32,10</elem>
			<elem id="6">9,31,33,11,10,32,34,12</elem>
			<elem id="7">11,33,35,13,12,34,36,14</elem>
			<elem id="8">13,35,37,15,14,36,38,16</elem>
			<elem id="9">15,37,39,17,16,38,40,18</elem>
			<elem id="10">21,43,45,23,22,44,46,24</elem>
			<elem id="11">23,45,47,25,24,46,48,26</elem>
			<elem id="12">25,47,49,27,26,48,50,28</elem>
			<elem id="13">27,49,51,29,28,50,52,30</elem>
			<elem id="14">29,51,53,31,30,52,54,32</elem>
			<elem id="15">31,53,55,33,32,54,56,34</elem>
			<elem id="16">33,55,57,35,34,56,58,36</elem>
			<elem id="17">35,57,59,37,36,58,60,38</elem>
			<elem id="18">37,59,61,39,38,60,62,40</elem>
			<elem id="19">43,65,67,45,44,66,68,46</elem>
			<elem id="20">45,67,69,47,46,68,70,48</elem>
<!-- ... 260 like lines cut -->
		</Elements>
		<Elements type="hex8" name="Part4">
			<elem id="281">631,693,695,633,632,694,696,634</elem>
			<elem id="282">633,695,697,635,634,696,698,636</elem>
			<elem id="283">635,697,699,637,636,698,700,638</elem>
			<elem id="284">637,699,701,639,638,700,702,640</elem>
			<elem id="285">639,701,703,641,640,702,704,642</elem>
			<elem id="286">641,703,705,643,642,704,706,644</elem>
			<elem id="287">643,705,707,645,644,706,708,646</elem>
			<elem id="288">645,707,709,647,646,708,710,648</elem>
			<elem id="289">647,709,711,649,648,710,712,650</elem>
			<elem id="290">649,711,713,651,650,712,714,652</elem>
			<elem id="291">651,713,715,653,652,714,716,654</elem>
			<elem id="292">653,715,717,655,654,716,718,656</elem>
			<elem id="293">655,717,719,657,656,718,720,658</elem>
			<elem id="294">657,719,721,659,658,720,722,660</elem>
			<elem id="295">659,721,723,661,660,722,724,662</elem>
			<elem id="296">661,723,725,663,662,724,726,664</elem>
			<elem id="297">663,725,727,665,664,726,728,666</elem>
			<elem id="298">665,727,729,667,666,728,730,668</elem>
			<elem id="299">667,729,731,669,668,730,732,670</elem>
			<elem id="300">669,731,733,671,670,732,734,672</elem>
<!-- ... 660 like lines cut -->
		</Elements>
		<NodeSet name="FixedFluidVelocity1">
			629, 630, 691, 692, 751, 752, 811, 812,
			871, 872, 931, 932, 991, 992, 1051, 1052,
			1111, 1112, 1171, 1172, 1231, 1232, 1291, 1292,
			1351, 1352, 1411, 1412, 1471, 1472, 1531, 1532,
			1591, 1592, 1651, 1652, 1711, 1712, 1771, 1772,
			1831, 1832
		</NodeSet>
		<NodeSet name="FixedFluidVelocity2">
			1, 2, 3, 4, 5, 6, 7, 8,
			9, 10, 11, 12, 13, 14, 15, 16,
			17, 18, 19, 20, 21, 22, 23, 24,
			25, 26, 27, 28, 29, 30, 31, 32,
			33, 34, 35, 36, 37, 38, 39, 40,
			41, 42, 43, 44, 45, 46, 47, 48,
			49, 50, 51, 52, 53, 54, 55, 56,
			57, 58, 59, 60, 61, 62, 63, 64,
			65, 66, 67, 68, 69, 70, 71, 72,
			73, 74, 75, 76, 77, 78, 79, 80,
			81, 82, 83, 84, 85, 86, 87, 88,
			89, 90, 91, 92, 93, 94, 95, 96,
			97, 98, 99, 100, 101, 102, 103, 104,
			105, 106, 107, 108, 109, 110, 111, 112,
			113, 114, 115, 116, 117, 118, 119, 120,
			121, 122, 123, 124, 125, 126, 127, 128,
			129, 130, 131, 132, 133, 134, 135, 136,
			137, 138, 139, 140, 141, 142, 143, 144,
			145, 146, 147, 148, 149, 150, 151, 152,
			153, 154, 155, 156, 157, 158, 159, 160,
<!-- ... 238 like lines cut -->
		</NodeSet>
		<NodeSet name="FixedFluidVelocity3">
			1, 2, 3, 4, 5, 6, 7, 8,
			9, 10, 11, 12, 13, 14, 15, 16,
			17, 18, 19, 20, 439, 440, 441, 442,
			443, 444, 445, 446, 447, 448, 449, 450,
			451, 452, 453, 454, 455, 456, 457, 458,
			459, 460, 465, 466, 467, 468, 473, 474,
			475, 476, 621, 622, 623, 624, 625, 626,
			627, 628, 629, 630, 631, 632, 633, 634,
			635, 636, 637, 638, 639, 640, 641, 642,
			643, 644, 645, 646, 647, 648, 649, 650,
			651, 652, 653, 654, 655, 656, 657, 658,
			659, 660, 661, 662, 663, 664, 665, 666,
			667, 668, 669, 670, 671, 672, 673, 674,
			675, 676, 677, 678, 679, 680, 681, 682,
			683, 684, 685, 686, 687, 688, 689, 690,
			1831, 1832, 1833, 1834, 1835, 1836, 1837, 1838,
			1839, 1840, 1841, 1842, 1843, 1844, 1845, 1846,
			1847, 1848, 1849, 1850, 1851, 1852, 1853, 1854,
			1855, 1856, 1857, 1858, 1859, 1860, 1861, 1862,
			1863, 1864, 1865, 1866, 1867, 1868, 1869, 1870,
<!-- ... 5 like lines cut -->
		</NodeSet>
		<NodeSet name="FixedFluidDilatation1">
			1, 2, 3, 4, 5, 6, 7, 8,
			9, 10, 11, 12, 13, 14, 15, 16,
			17, 18, 19, 20, 439, 440, 441, 442,
			443, 444, 445, 446, 447, 448, 449, 450,
			451, 452, 453, 454, 455, 456, 457, 458,
			459, 460, 465, 466, 467, 468, 473, 474,
			475, 476, 621, 622, 623, 624, 625, 626,
			627, 628, 629, 630, 631, 632, 633, 634,
			635, 636, 637, 638, 639, 640, 641, 642,
			643, 644, 645, 646, 647, 648, 649, 650,
			651, 652, 653, 654, 655, 656, 657, 658,
			659, 660, 661, 662, 663, 664, 665, 666,
			667, 668, 669, 670, 671, 672, 673, 674,
			675, 676, 677, 678, 679, 680, 681, 682,
			683, 684, 685, 686, 687, 688, 689, 690,
			1831, 1832, 1833, 1834, 1835, 1836, 1837, 1838,
			1839, 1840, 1841, 1842, 1843, 1844, 1845, 1846,
			1847, 1848, 1849, 1850, 1851, 1852, 1853, 1854,
			1855, 1856, 1857, 1858, 1859, 1860, 1861, 1862,
			1863, 1864, 1865, 1866, 1867, 1868, 1869, 1870,
<!-- ... 5 like lines cut -->
		</NodeSet>
		<NodeSet name="FixedFluidVelocity4">
			19, 20, 41, 42, 63, 64, 85, 86,
			107, 108, 129, 130, 151, 152, 173, 174,
			195, 196, 217, 218, 239, 240, 261, 262,
			283, 284, 305, 306, 327, 328, 349, 350,
			371, 372, 393, 394, 415, 416, 437, 438,
			459, 460
		</NodeSet>
		<NodeSet name="FixedDisplacement1">
			1, 2, 3, 4, 5, 6, 7, 8,
			9, 10, 11, 12, 13, 14, 15, 16,
			17, 18, 19, 20, 21, 22, 23, 24,
			25, 26, 27, 28, 29, 30, 31, 32,
			33, 34, 35, 36, 37, 38, 39, 40,
			41, 42, 43, 44, 45, 46, 47, 48,
			49, 50, 51, 52, 53, 54, 55, 56,
			57, 58, 59, 60, 61, 62, 63, 64,
			65, 66, 67, 68, 69, 70, 71, 72,
			73, 74, 75, 76, 77, 78, 79, 80,
			81, 82, 83, 84, 85, 86, 87, 88,
			89, 90, 91, 92, 93, 94, 95, 96,
			97, 98, 99, 100, 101, 102, 103, 104,
			105, 106, 107, 108, 109, 110, 111, 112,
			113, 114, 115, 116, 117, 118, 119, 120,
			121, 122, 123, 124, 125, 126, 127, 128,
			129, 130, 131, 132, 133, 134, 135, 136,
			137, 138, 139, 140, 141, 142, 143, 144,
			145, 146, 147, 148, 149, 150, 151, 152,
			153, 154, 155, 156, 157, 158, 159, 160,
<!-- ... 238 like lines cut -->
		</NodeSet>
		<NodeSet name="PrescribedFluidVelocity1">
			19, 20, 41, 42, 63, 64, 85, 86,
			107, 108, 129, 130, 151, 152, 173, 174,
			195, 196, 217, 218, 239, 240, 261, 262,
			283, 284, 305, 306, 327, 328, 349, 350,
			371, 372, 393, 394, 415, 416, 437, 438,
			459, 460
		</NodeSet>
	</Mesh>
	<MeshDomains>
		<SolidDomain name="Part3" mat="Material1"/>
		<SolidDomain name="Part4" mat="Material2"/>
	</MeshDomains>
	<Boundary>
		<bc name="FixedFluidVelocity01" node_set="FixedFluidVelocity1" type="zero fluid velocity">
			<wx_dof>1</wx_dof>
			<wy_dof>1</wy_dof>
			<wz_dof>1</wz_dof>
		</bc>
		<bc name="FixedFluidVelocity02" node_set="FixedFluidVelocity2" type="zero fluid velocity">
			<wx_dof>0</wx_dof>
			<wy_dof>0</wy_dof>
			<wz_dof>1</wz_dof>
		</bc>
		<bc name="FixedFluidVelocity03" node_set="FixedFluidVelocity3" type="zero fluid velocity">
			<wx_dof>0</wx_dof>
			<wy_dof>1</wy_dof>
			<wz_dof>1</wz_dof>
		</bc>
		<bc name="FixedFluidDilatation01" node_set="FixedFluidDilatation1" type="zero fluid dilatation"/>
		<bc name="FixedFluidVelocity04" node_set="FixedFluidVelocity4" type="zero fluid velocity">
			<wx_dof>0</wx_dof>
			<wy_dof>1</wy_dof>
			<wz_dof>1</wz_dof>
		</bc>
		<bc name="FixedDisplacement01" node_set="FixedDisplacement1" type="zero displacement">
			<x_dof>1</x_dof>
			<y_dof>1</y_dof>
			<z_dof>1</z_dof>
		</bc>
		<bc name="PrescribedFluidVelocity1" node_set="PrescribedFluidVelocity1" type="prescribed fluid velocity">
			<dof>wx</dof>
			<value lc="1">1</value>
			<relative>0</relative>
		</bc>
	</Boundary>
	<LoadData>
		<load_controller id="1" name="LC1" type="loadcurve">
			<interpolate>SMOOTH</interpolate>
			<extend>CONSTANT</extend>
			<points>
				<pt>0,0</pt>
				<pt>1,1</pt>
			</points>
		</load_controller>
	</LoadData>
	<Output>
		<plotfile type="febio">
			<var type="acceleration"/>
			<var type="displacement"/>
			<var type="velocity"/>
			<var type="fluid pressure"/>
			<var type="fluid acceleration"/>
			<var type="fluid dilatation"/>
			<var type="fluid rate of deformation"/>
			<var type="fluid stress"/>
			<var type="fluid velocity"/>
			<var type="fluid volume ratio"/>
			<var type="fluid vorticity"/>
			<var type="nodal fluid velocity"/>
			<var type="fluid flux"/>
			<var type="nodal fluid flux"/>
		</plotfile>
	</Output>
</febio_spec>
