<?xml version="1.0" encoding="ISO-8859-1"?>
<!--
Problem Description:
	BFSI ultrafiltration of viscous fluid through biphasic layer. Step pressure prescribed on rigid top platen interfacing viscous fluid, which interfaces a porous media domain, which interfaces a rigid porous platen with 0 p. Up to t=100s when steady state is reached.
Main Features:
	BFSI
	porous solid
	permeability
	Newtonian Fluid
	Rigid Body
	BFSI Traction
Secondary Features:
	Broyden
	no ref each step
	no diverge reform
	PostBL
	must points
Materials:
	NeoHookean
	Poroelastic
	Newtonian
	Constant Permeability
Degrees of Freedom: 3675
Results:
	Steps Completed: 882
	Equilibrium Iterations: 2877
	Right Hand Evaluations: 3930
	Siffness Reformations: 52
	Other:
		The ydisplacement for node 250 at time t=100 is 0.4.98356e06
Comments:
	Similar examples seen in results of
       Shim JJ, Maas SA, Weiss JA, Ateshian GA. (2021) J Biomech Eng, In Press.
-->
<febio_spec version="4.0">
	<Module type="fluid-FSI"/>
	<Control>
		<analysis>DYNAMIC</analysis>
		<time_steps>100000</time_steps>
		<step_size>0.001</step_size>
		<plot_zero_state>0</plot_zero_state>
		<plot_range>0,-1</plot_range>
		<plot_level>PLOT_MAJOR_ITRS</plot_level>
		<output_level>OUTPUT_MAJOR_ITRS</output_level>
		<plot_stride>1</plot_stride>
		<adaptor_re_solve>1</adaptor_re_solve>
		<time_stepper type="default">
			<max_retries>9</max_retries>
			<opt_iter>60</opt_iter>
			<dtmin>0.0001</dtmin>
			<dtmax lc="1">0</dtmax>
			<aggressiveness>0</aggressiveness>
			<cutback>0.5</cutback>
			<dtforce>0</dtforce>
		</time_stepper>
		<solver type="fluid-FSI">
			<symmetric_stiffness>non-symmetric</symmetric_stiffness>
			<equation_scheme>staggered</equation_scheme>
			<equation_order>default</equation_order>
			<optimize_bw>0</optimize_bw>
			<lstol>0.9</lstol>
			<lsmin>0.01</lsmin>
			<lsiter>5</lsiter>
			<max_refs>10</max_refs>
			<check_zero_diagonal>0</check_zero_diagonal>
			<zero_diagonal_tol>0</zero_diagonal_tol>
			<force_partition>0</force_partition>
			<reform_each_time_step>0</reform_each_time_step>
			<reform_augment>0</reform_augment>
			<diverge_reform>0</diverge_reform>
			<min_residual>1e-25</min_residual>
			<max_residual>1e+20</max_residual>
			<dtol>0.001</dtol>
			<vtol>0.001</vtol>
			<ftol>0.001</ftol>
			<etol>0.01</etol>
			<rtol>0.001</rtol>
			<rhoi>0</rhoi>
			<predictor>0</predictor>
			<min_volume_ratio>0</min_volume_ratio>
			<order>2</order>
			<qn_method type="Broyden">
				<max_ups>40</max_ups>
				<max_buffer_size>0</max_buffer_size>
				<cycle_buffer>1</cycle_buffer>
				<cmax>100000</cmax>
			</qn_method>
		</solver>
	</Control>
	<Globals>
		<Constants>
			<T>0</T>
			<R>0</R>
			<Fc>0</Fc>
		</Constants>
	</Globals>
	<Material>
		<material id="1" name="Material1" type="biphasic-FSI">
			<phi0>0</phi0>
			<solid type="neo-Hookean">
				<density>0</density>
				<E>1e-09</E>
				<v>0</v>
			</solid>
			<fluid>
				<density>0</density>
				<k>1e+14</k>
				<viscous type="Newtonian fluid">
					<kappa>0</kappa>
					<mu>1</mu>
				</viscous>
			</fluid>
			<permeability type="perm-const-iso">
				<perm>0</perm>
			</permeability>
		</material>
		<material id="2" name="Material2" type="biphasic-FSI">
			<phi0>0.3</phi0>
			<solid type="neo-Hookean">
				<density>0</density>
				<E>900000</E>
				<v>0.2</v>
			</solid>
			<fluid>
				<density>0</density>
				<k>1e+14</k>
				<viscous type="Newtonian fluid">
					<kappa>0</kappa>
					<mu>1</mu>
				</viscous>
			</fluid>
			<permeability type="perm-const-iso">
				<perm>1e-14</perm>
			</permeability>
		</material>
		<material id="3" name="Material3" type="rigid body">
			<density>1</density>
			<E>1</E>
			<v>0</v>
			<center_of_mass>0,0,0</center_of_mass>
		</material>
	</Material>
	<Mesh>
		<Nodes name="Object01">
			<node id="1">-0.0005,8.3310095e-16,4.1633363e-17</node>
			<node id="2">-0.0005,8.3310095e-16,0.0001</node>
			<node id="3">-0.0005,5e-05,4.1633363e-17</node>
			<node id="4">-0.0005,5e-05,0.0001</node>
			<node id="5">-0.0005,0.0001,4.1633363e-17</node>
			<node id="6">-0.0005,0.0001,0.0001</node>
			<node id="7">-0.0005,0.00015,4.1633363e-17</node>
			<node id="8">-0.0005,0.00015,0.0001</node>
			<node id="9">-0.0005,0.0002,4.1633363e-17</node>
			<node id="10">-0.0005,0.0002,0.0001</node>
			<node id="11">-0.0005,0.00025,4.1633363e-17</node>
			<node id="12">-0.0005,0.00025,0.0001</node>
			<node id="13">-0.0005,0.0003,4.1633363e-17</node>
			<node id="14">-0.0005,0.0003,0.0001</node>
			<node id="15">-0.0005,0.00035,4.1633363e-17</node>
			<node id="16">-0.0005,0.00035,0.0001</node>
			<node id="17">-0.0005,0.0004,4.1633363e-17</node>
			<node id="18">-0.0005,0.0004,0.0001</node>
			<node id="19">-0.0005,0.00045,4.1633363e-17</node>
			<node id="20">-0.0005,0.00045,0.0001</node>
<!-- ... 1256 like lines cut -->
		</Nodes>
		<Elements type="hex8" name="Part3">
			<elem id="1">3,43,45,5,4,44,46,6</elem>
			<elem id="2">5,45,47,7,6,46,48,8</elem>
			<elem id="3">7,47,49,9,8,48,50,10</elem>
			<elem id="4">9,49,51,11,10,50,52,12</elem>
			<elem id="5">11,51,53,13,12,52,54,14</elem>
			<elem id="6">13,53,55,15,14,54,56,16</elem>
			<elem id="7">15,55,57,17,16,56,58,18</elem>
			<elem id="8">17,57,59,19,18,58,60,20</elem>
			<elem id="9">19,59,61,21,20,60,62,22</elem>
			<elem id="10">21,61,63,23,22,62,64,24</elem>
			<elem id="11">23,63,65,25,24,64,66,26</elem>
			<elem id="12">25,65,67,27,26,66,68,28</elem>
			<elem id="13">27,67,69,29,28,68,70,30</elem>
			<elem id="14">29,69,71,31,30,70,72,32</elem>
			<elem id="15">31,71,73,33,32,72,74,34</elem>
			<elem id="16">33,73,75,35,34,74,76,36</elem>
			<elem id="17">35,75,77,37,36,76,78,38</elem>
			<elem id="18">37,77,79,39,38,78,80,40</elem>
			<elem id="19">43,85,87,45,44,86,88,46</elem>
			<elem id="20">45,87,89,47,46,88,90,48</elem>
<!-- ... 260 like lines cut -->
		</Elements>
		<Elements type="hex8" name="Part1">
			<elem id="281">715,637,639,635,716,638,640,636</elem>
			<elem id="282">637,641,643,639,638,642,644,640</elem>
			<elem id="283">641,645,647,643,642,646,648,644</elem>
			<elem id="284">645,649,651,647,646,650,652,648</elem>
			<elem id="285">649,653,655,651,650,654,656,652</elem>
			<elem id="286">653,657,659,655,654,658,660,656</elem>
			<elem id="287">657,661,663,659,658,662,664,660</elem>
			<elem id="288">661,665,667,663,662,666,668,664</elem>
			<elem id="289">665,669,671,667,666,670,672,668</elem>
			<elem id="290">669,1099,673,671,670,1100,674,672</elem>
		</Elements>
		<Elements type="hex8" name="Part2">
			<elem id="291">677,717,719,679,678,718,720,680</elem>
			<elem id="292">679,719,721,681,680,720,722,682</elem>
			<elem id="293">681,721,723,683,682,722,724,684</elem>
			<elem id="294">683,723,725,685,684,724,726,686</elem>
			<elem id="295">685,725,727,687,686,726,728,688</elem>
			<elem id="296">687,727,729,689,688,728,730,690</elem>
			<elem id="297">689,729,731,691,690,730,732,692</elem>
			<elem id="298">691,731,733,693,692,732,734,694</elem>
			<elem id="299">693,733,735,695,694,734,736,696</elem>
			<elem id="300">695,735,737,697,696,736,738,698</elem>
			<elem id="301">697,737,739,699,698,738,740,700</elem>
			<elem id="302">699,739,741,701,700,740,742,702</elem>
			<elem id="303">701,741,743,703,702,742,744,704</elem>
			<elem id="304">703,743,745,705,704,744,746,706</elem>
			<elem id="305">705,745,747,707,706,746,748,708</elem>
			<elem id="306">707,747,749,709,708,748,750,710</elem>
			<elem id="307">709,749,751,711,710,750,752,712</elem>
			<elem id="308">711,751,753,713,712,752,754,714</elem>
			<elem id="309">717,755,757,719,718,756,758,720</elem>
			<elem id="310">719,757,759,721,720,758,760,722</elem>
<!-- ... 260 like lines cut -->
		</Elements>
		<NodeSet name="FixedDisplacement1">
			1, 2, 3, 4, 5, 6, 7, 8,
			9, 10, 11, 12, 13, 14, 15, 16,
			17, 18, 19, 20, 21, 22, 23, 24,
			25, 26, 27, 28, 29, 30, 31, 32,
			33, 34, 35, 36, 37, 38, 39, 40,
			41, 42, 43, 44, 45, 46, 47, 48,
			49, 50, 51, 52, 53, 54, 55, 56,
			57, 58, 59, 60, 61, 62, 63, 64,
			65, 66, 67, 68, 69, 70, 71, 72,
			73, 74, 75, 76, 77, 78, 79, 80,
			81, 82, 83, 84, 85, 86, 87, 88,
			89, 90, 91, 92, 93, 94, 95, 96,
			97, 98, 99, 100, 101, 102, 103, 104,
			105, 106, 107, 108, 109, 110, 111, 112,
			113, 114, 115, 116, 117, 118, 119, 120,
			121, 122, 123, 124, 125, 126, 127, 128,
			129, 130, 131, 132, 133, 134, 135, 136,
			137, 138, 139, 140, 141, 142, 143, 144,
			145, 146, 147, 148, 149, 150, 151, 152,
			153, 154, 155, 156, 157, 158, 159, 160,
<!-- ... 137 like lines cut -->
		</NodeSet>
		<NodeSet name="FixedFluidVelocity1">
			1, 2, 3, 4, 5, 6, 7, 8,
			9, 10, 11, 12, 13, 14, 15, 16,
			17, 18, 19, 20, 21, 22, 23, 24,
			25, 26, 27, 28, 29, 30, 31, 32,
			33, 34, 35, 36, 37, 38, 39, 40,
			41, 42, 43, 44, 45, 46, 47, 48,
			49, 50, 51, 52, 53, 54, 55, 56,
			57, 58, 59, 60, 61, 62, 63, 64,
			65, 66, 67, 68, 69, 70, 71, 72,
			73, 74, 75, 76, 77, 78, 79, 80,
			81, 82, 83, 84, 85, 86, 87, 88,
			89, 90, 91, 92, 93, 94, 95, 96,
			97, 98, 99, 100, 101, 102, 103, 104,
			105, 106, 107, 108, 109, 110, 111, 112,
			113, 114, 115, 116, 117, 118, 119, 120,
			121, 122, 123, 124, 125, 126, 127, 128,
			129, 130, 131, 132, 133, 134, 135, 136,
			137, 138, 139, 140, 141, 142, 143, 144,
			145, 146, 147, 148, 149, 150, 151, 152,
			153, 154, 155, 156, 157, 158, 159, 160,
<!-- ... 137 like lines cut -->
		</NodeSet>
		<NodeSet name="FixedFluidVelocity2">
			637, 638, 641, 642, 645, 646, 649, 650,
			653, 654, 657, 658, 661, 662, 665, 666,
			669, 670, 715, 716, 1099, 1100
		</NodeSet>
		<NodeSet name="FixedFluidDilatation1">
			1, 2, 41, 42, 83, 84, 125, 126,
			167, 168, 209, 210, 251, 252, 293, 294,
			335, 336, 377, 378, 419, 420
		</NodeSet>
		<NodeSet name="FixedDisplacement2">
			1, 2, 41, 42, 83, 84, 125, 126,
			167, 168, 209, 210, 251, 252, 293, 294,
			335, 336, 377, 378, 419, 420
		</NodeSet>
		<Surface name="FSIInterfaceTraction1">
			<quad4 id="1">715,637,638,716</quad4>
			<quad4 id="2">637,641,642,638</quad4>
			<quad4 id="3">641,645,646,642</quad4>
			<quad4 id="4">645,649,650,646</quad4>
			<quad4 id="5">649,653,654,650</quad4>
			<quad4 id="6">653,657,658,654</quad4>
			<quad4 id="7">657,661,662,658</quad4>
			<quad4 id="8">661,665,666,662</quad4>
			<quad4 id="9">665,669,670,666</quad4>
			<quad4 id="10">669,1099,1100,670</quad4>
		</Surface>
	</Mesh>
	<MeshDomains>
		<SolidDomain name="Part3" mat="Material2"/>
		<SolidDomain name="Part1" mat="Material3"/>
		<SolidDomain name="Part2" mat="Material1"/>
	</MeshDomains>
	<Boundary>
		<bc name="FixedDisplacement01" node_set="FixedDisplacement1" type="zero displacement">
			<x_dof>1</x_dof>
			<y_dof>0</y_dof>
			<z_dof>1</z_dof>
		</bc>
		<bc name="FixedFluidVelocity01" node_set="FixedFluidVelocity1" type="zero fluid velocity">
			<wx_dof>1</wx_dof>
			<wy_dof>0</wy_dof>
			<wz_dof>1</wz_dof>
		</bc>
		<bc name="FixedFluidVelocity02" node_set="FixedFluidVelocity2" type="zero fluid velocity">
			<wx_dof>0</wx_dof>
			<wy_dof>1</wy_dof>
			<wz_dof>0</wz_dof>
		</bc>
		<bc name="FixedFluidDilatation01" node_set="FixedFluidDilatation1" type="zero fluid dilatation"/>
		<bc name="FixedDisplacement02" node_set="FixedDisplacement2" type="zero displacement">
			<x_dof>0</x_dof>
			<y_dof>1</y_dof>
			<z_dof>0</z_dof>
		</bc>
	</Boundary>
	<Rigid>
		<rigid_bc name="RigidFixed01" type="rigid_fixed">
			<rb>Material3</rb>
			<Rx_dof>1</Rx_dof>
			<Ry_dof>0</Ry_dof>
			<Rz_dof>1</Rz_dof>
			<Ru_dof>1</Ru_dof>
			<Rv_dof>1</Rv_dof>
			<Rw_dof>1</Rw_dof>
		</rigid_bc>
		<rigid_load name="RigidForce01" type="rigid_force">
			<rb>Material3</rb>
			<dof>Ry</dof>
			<value lc="2">-0.001</value>
			<load_type>LOAD</load_type>
			<relative>0</relative>
		</rigid_load>
	</Rigid>
	<Loads>
		<surface_load name="BFSInterfaceTraction01" surface="FSIInterfaceTraction1" type="biphasic-FSI traction">
			<shell_bottom>0</shell_bottom>
		</surface_load>
	</Loads>
	<LoadData>
		<load_controller id="1" name="LC1" type="loadcurve">
			<interpolate>STEP</interpolate>
			<extend>CONSTANT</extend>
			<points>
				<pt>0,0</pt>
				<!-- <pt>0.1,0.001</pt>
				<pt>0.5,0.002</pt>
				<pt>1,0.01</pt> -->
				<pt>5,0.05</pt>
				<pt>10,0.1</pt>
				<pt>50,0.2</pt>
				<pt>100,1</pt>
			</points>
		</load_controller>
		<load_controller id="2" name="LC2" type="loadcurve">
			<interpolate>STEP</interpolate>
			<extend>CONSTANT</extend>
			<points>
				<pt>0,0</pt>
				<pt>1,1</pt>
			</points>
		</load_controller>
	</LoadData>
	<Output>
		<plotfile type="febio">
			<var type="acceleration"/>
			<var type="displacement"/>
			<var type="relative volume"/>
			<var type="rigid acceleration"/>
			<var type="rigid force"/>
			<var type="rigid position"/>
			<var type="rigid velocity"/>
			<var type="stress"/>
			<var type="velocity"/>
			<var type="fluid pressure"/>
			<var type="fluid acceleration"/>
			<var type="fluid density"/>
			<var type="fluid dilatation"/>
			<var type="fluid rate of deformation"/>
			<var type="fluid stress"/>
			<var type="fluid velocity"/>
			<var type="fluid volume ratio"/>
			<var type="fluid vorticity"/>
			<var type="nodal fluid velocity"/>
			<var type="fluid flux"/>
			<var type="nodal fluid flux"/>
			<var type="porosity"/>
			<var type="solid volume fraction"/>
		</plotfile>
	</Output>
</febio_spec>
