<?xml version="1.0" encoding="ISO-8859-1"?>
<!--
This example uses the mixed biphasic formulation (i.e. mixed_formulation = 1)
-->
<febio_spec version="4.0">
	<Module type="biphasic"/>
	<Control>
		<analysis>TRANSIENT</analysis>
		<time_steps>5</time_steps>
		<!-- <time_steps>10</time_steps> -->
		<step_size>0.1</step_size>
		<plot_zero_state>0</plot_zero_state>
		<plot_range>0,-1</plot_range>
		<plot_level>PLOT_MAJOR_ITRS</plot_level>
		<output_level>OUTPUT_MAJOR_ITRS</output_level>
		<plot_stride>1</plot_stride>
		<adaptor_re_solve>1</adaptor_re_solve>
		<time_stepper type="default">
			<max_retries>5</max_retries>
			<opt_iter>10</opt_iter>
			<dtmin>0.01</dtmin>
			<dtmax>0.1</dtmax>
			<aggressiveness>0</aggressiveness>
			<cutback>0.5</cutback>
			<dtforce>0</dtforce>
		</time_stepper>
		<solver type="biphasic">
			<symmetric_stiffness>non-symmetric</symmetric_stiffness>
			<equation_scheme>staggered</equation_scheme>
			<equation_order>default</equation_order>
			<optimize_bw>0</optimize_bw>
			<lstol>0.9</lstol>
			<lsmin>0.01</lsmin>
			<lsiter>5</lsiter>
			<max_refs>25</max_refs>
			<check_zero_diagonal>0</check_zero_diagonal>
			<zero_diagonal_tol>0</zero_diagonal_tol>
			<force_partition>0</force_partition>
			<reform_each_time_step>1</reform_each_time_step>
			<reform_augment>0</reform_augment>
			<diverge_reform>1</diverge_reform>
			<min_residual>1e-20</min_residual>
			<max_residual>0</max_residual>
			<dtol>0.001</dtol>
			<etol>0.01</etol>
			<rtol>0</rtol>
			<rhoi>-2</rhoi>
			<alpha>1</alpha>
			<beta>0.25</beta>
			<gamma>0.5</gamma>
			<logSolve>0</logSolve>
			<arc_length>0</arc_length>
			<arc_length_scale>0</arc_length_scale>
			<ptol>0.01</ptol>
			<mixed_formulation>1</mixed_formulation>
			<qn_method type="Broyden">
				<max_ups>0</max_ups>
				<max_buffer_size>0</max_buffer_size>
				<cycle_buffer>1</cycle_buffer>
				<cmax>100000</cmax>
			</qn_method>
		</solver>
	</Control>
	<Globals>
		<Constants>
			<T>0</T>
			<R>0</R>
			<Fc>0</Fc>
		</Constants>
	</Globals>
	<Material>
		<material id="1" name="Material1" type="biphasic">
			<phi0>0</phi0>
			<fluid_density>1</fluid_density>
			<tau>0</tau>
			<solid type="neo-Hookean">
				<density>1</density>
				<E>1000</E>
				<v>0</v>
			</solid>
			<permeability type="perm-const-iso">
				<perm>0.001</perm>
			</permeability>
		</material>
	</Material>
	<Mesh>
		<Nodes name="Object1">
			<node id="1">-5,-0.5,0</node>
			<node id="2">-5,-0.5,0.1</node>
			<node id="3">-5,-0.5,0.2</node>
			<node id="4">-5,-0.5,0.3</node>
			<node id="5">-5,-0.5,0.4</node>
			<node id="6">-5,-0.5,0.5</node>
			<node id="7">-5,-0.5,0.6</node>
			<node id="8">-5,-0.5,0.7</node>
			<node id="9">-5,-0.5,0.8</node>
			<node id="10">-5,-0.5,0.9</node>
			<node id="11">-5,-0.5,1</node>
			<node id="12">-5,-0.4,0</node>
			<node id="13">-5,-0.4,0.2</node>
			<node id="14">-5,-0.4,0.4</node>
			<node id="15">-5,-0.4,0.6</node>
			<node id="16">-5,-0.4,0.8</node>
			<node id="17">-5,-0.4,1</node>
			<node id="18">-5,-0.3,0</node>
			<node id="19">-5,-0.3,0.1</node>
			<node id="20">-5,-0.3,0.2</node>
<!-- ... 6676 like lines cut -->
		</Nodes>
		<Elements type="hex20" name="Part1">
			<elem id="1">1,133,150,18,3,135,152,20,97,144,103,12,98,145,104,13,2,134,151,19</elem>
			<elem id="2">3,135,152,20,5,137,154,22,98,145,104,13,99,146,105,14,4,136,153,21</elem>
			<elem id="3">5,137,154,22,7,139,156,24,99,146,105,14,100,147,106,15,6,138,155,23</elem>
			<elem id="4">7,139,156,24,9,141,158,26,100,147,106,15,101,148,107,16,8,140,157,25</elem>
			<elem id="5">9,141,158,26,11,143,160,28,101,148,107,16,102,149,108,17,10,142,159,27</elem>
			<elem id="6">18,150,167,35,20,152,169,37,103,161,109,29,104,162,110,30,19,151,168,36</elem>
			<elem id="7">20,152,169,37,22,154,171,39,104,162,110,30,105,163,111,31,21,153,170,38</elem>
			<elem id="8">22,154,171,39,24,156,173,41,105,163,111,31,106,164,112,32,23,155,172,40</elem>
			<elem id="9">24,156,173,41,26,158,175,43,106,164,112,32,107,165,113,33,25,157,174,42</elem>
			<elem id="10">26,158,175,43,28,160,177,45,107,165,113,33,108,166,114,34,27,159,176,44</elem>
			<elem id="11">35,167,184,52,37,169,186,54,109,178,115,46,110,179,116,47,36,168,185,53</elem>
			<elem id="12">37,169,186,54,39,171,188,56,110,179,116,47,111,180,117,48,38,170,187,55</elem>
			<elem id="13">39,171,188,56,41,173,190,58,111,180,117,48,112,181,118,49,40,172,189,57</elem>
			<elem id="14">41,173,190,58,43,175,192,60,112,181,118,49,113,182,119,50,42,174,191,59</elem>
			<elem id="15">43,175,192,60,45,177,194,62,113,182,119,50,114,183,120,51,44,176,193,61</elem>
			<elem id="16">52,184,201,69,54,186,203,71,115,195,121,63,116,196,122,64,53,185,202,70</elem>
			<elem id="17">54,186,203,71,56,188,205,73,116,196,122,64,117,197,123,65,55,187,204,72</elem>
			<elem id="18">56,188,205,73,58,190,207,75,117,197,123,65,118,198,124,66,57,189,206,74</elem>
			<elem id="19">58,190,207,75,60,192,209,77,118,198,124,66,119,199,125,67,59,191,208,76</elem>
			<elem id="20">60,192,209,77,62,194,211,79,119,199,125,67,120,200,126,68,61,193,210,78</elem>
<!-- ... 1230 like lines cut -->
		</Elements>
		<NodeSet name="set01">
			11
		</NodeSet>
		<Surface name="FixedDisplacement1">
			<quad8 id="1">86,69,71,88,80,70,81,87</quad8>
			<quad8 id="2">88,71,73,90,81,72,82,89</quad8>
			<quad8 id="3">90,73,75,92,82,74,83,91</quad8>
			<quad8 id="4">92,75,77,94,83,76,84,93</quad8>
			<quad8 id="5">94,77,79,96,84,78,85,95</quad8>
			<quad8 id="6">69,52,54,71,63,53,64,70</quad8>
			<quad8 id="7">71,54,56,73,64,55,65,72</quad8>
			<quad8 id="8">73,56,58,75,65,57,66,74</quad8>
			<quad8 id="9">75,58,60,77,66,59,67,76</quad8>
			<quad8 id="10">77,60,62,79,67,61,68,78</quad8>
			<quad8 id="11">52,35,37,54,46,36,47,53</quad8>
			<quad8 id="12">54,37,39,56,47,38,48,55</quad8>
			<quad8 id="13">56,39,41,58,48,40,49,57</quad8>
			<quad8 id="14">58,41,43,60,49,42,50,59</quad8>
			<quad8 id="15">60,43,45,62,50,44,51,61</quad8>
			<quad8 id="16">35,18,20,37,29,19,30,36</quad8>
			<quad8 id="17">37,20,22,39,30,21,31,38</quad8>
			<quad8 id="18">39,22,24,41,31,23,32,40</quad8>
			<quad8 id="19">41,24,26,43,32,25,33,42</quad8>
			<quad8 id="20">43,26,28,45,33,27,34,44</quad8>
<!-- ... 5 like lines cut -->
		</Surface>
		<Surface name="SurfaceTraction1">
			<quad8 id="1">6601,6618,6620,6603,6612,6619,6613,6602</quad8>
			<quad8 id="2">6603,6620,6622,6605,6613,6621,6614,6604</quad8>
			<quad8 id="3">6605,6622,6624,6607,6614,6623,6615,6606</quad8>
			<quad8 id="4">6607,6624,6626,6609,6615,6625,6616,6608</quad8>
			<quad8 id="5">6609,6626,6628,6611,6616,6627,6617,6610</quad8>
			<quad8 id="6">6618,6635,6637,6620,6629,6636,6630,6619</quad8>
			<quad8 id="7">6620,6637,6639,6622,6630,6638,6631,6621</quad8>
			<quad8 id="8">6622,6639,6641,6624,6631,6640,6632,6623</quad8>
			<quad8 id="9">6624,6641,6643,6626,6632,6642,6633,6625</quad8>
			<quad8 id="10">6626,6643,6645,6628,6633,6644,6634,6627</quad8>
			<quad8 id="11">6635,6652,6654,6637,6646,6653,6647,6636</quad8>
			<quad8 id="12">6637,6654,6656,6639,6647,6655,6648,6638</quad8>
			<quad8 id="13">6639,6656,6658,6641,6648,6657,6649,6640</quad8>
			<quad8 id="14">6641,6658,6660,6643,6649,6659,6650,6642</quad8>
			<quad8 id="15">6643,6660,6662,6645,6650,6661,6651,6644</quad8>
			<quad8 id="16">6652,6669,6671,6654,6663,6670,6664,6653</quad8>
			<quad8 id="17">6654,6671,6673,6656,6664,6672,6665,6655</quad8>
			<quad8 id="18">6656,6673,6675,6658,6665,6674,6666,6657</quad8>
			<quad8 id="19">6658,6675,6677,6660,6666,6676,6667,6659</quad8>
			<quad8 id="20">6660,6677,6679,6662,6667,6678,6668,6661</quad8>
<!-- ... 5 like lines cut -->
		</Surface>
	</Mesh>
	<MeshDomains>
		<SolidDomain name="Part1" mat="Material1"/>
	</MeshDomains>
	<Boundary>
		<bc name="FixedDisplacement1" node_set="@surface:FixedDisplacement1" type="zero displacement">
			<x_dof>1</x_dof>
			<y_dof>1</y_dof>
			<z_dof>1</z_dof>
		</bc>
	</Boundary>
	<Loads>
		<surface_load name="SurfaceTraction1" surface="SurfaceTraction1" type="traction">
			<scale lc="1">1</scale>
			<traction>0,-1,0</traction>
			<shell_bottom>0</shell_bottom>
			<linear>0</linear>
		</surface_load>
	</Loads>
	<LoadData>
		<load_controller id="1" name="LC1" type="loadcurve">
			<interpolate>SMOOTH</interpolate>
			<extend>CONSTANT</extend>
			<points>
				<pt>0,0</pt>
				<pt>1,1</pt>
			</points>
		</load_controller>
	</LoadData>
	<Output>
		<plotfile type="febio">
			<var type="displacement"/>
			<var type="stress"/>
			<var type="effective fluid pressure"/>
			<var type="fluid pressure"/>
			<var type="fluid flux"/>
			<var type="porosity"/>
			<var type="referential solid volume fraction"/>
			<var type="solid stress"/>
		</plotfile>
	</Output>
</febio_spec>
