<?xml version="1.0" encoding="ISO-8859-1"?>
<febio_spec version="4.0">
	<Module type="fluid-FSI">
		<units>CGS</units>
	</Module>
	<Control>
		<analysis>DYNAMIC</analysis>
		<time_steps>100</time_steps>
		<step_size>0.01</step_size>
		<plot_zero_state>0</plot_zero_state>
		<plot_range>0,-1</plot_range>
		<plot_level>PLOT_MAJOR_ITRS</plot_level>
		<output_level>OUTPUT_MAJOR_ITRS</output_level>
		<plot_stride>1</plot_stride>
		<adaptor_re_solve>1</adaptor_re_solve>
		<time_stepper type="default">
			<max_retries>5</max_retries>
			<opt_iter>50</opt_iter>
			<dtmin>0</dtmin>
			<dtmax>0.01</dtmax>
			<aggressiveness>0</aggressiveness>
			<cutback>0.5</cutback>
			<dtforce>0</dtforce>
		</time_stepper>
		<solver type="fluid-FSI">
			<symmetric_stiffness>non-symmetric</symmetric_stiffness>
			<equation_scheme>staggered</equation_scheme>
			<equation_order>default</equation_order>
			<optimize_bw>0</optimize_bw>
			<lstol>0.9</lstol>
			<lsmin>0.01</lsmin>
			<lsiter>5</lsiter>
			<max_refs>5</max_refs>
			<check_zero_diagonal>0</check_zero_diagonal>
			<zero_diagonal_tol>0</zero_diagonal_tol>
			<force_partition>0</force_partition>
			<reform_each_time_step>0</reform_each_time_step>
			<reform_augment>0</reform_augment>
			<diverge_reform>0</diverge_reform>
			<min_residual>1e-20</min_residual>
			<max_residual>1e+20</max_residual>
			<dtol>0.001</dtol>
			<vtol>0.001</vtol>
			<ftol>0.001</ftol>
			<etol>0.01</etol>
			<rtol>0.001</rtol>
			<rhoi>0</rhoi>
			<predictor>0</predictor>
			<min_volume_ratio>0</min_volume_ratio>
			<order>2</order>
			<qn_method type="Broyden">
				<max_ups>50</max_ups>
				<max_buffer_size>0</max_buffer_size>
				<cycle_buffer>1</cycle_buffer>
				<cmax>100000</cmax>
			</qn_method>
		</solver>
	</Control>
	<Globals>
		<Constants>
			<T>0</T>
			<P>0</P>
			<R>83.1446</R>
			<Fc>9.64853</Fc>
		</Constants>
	</Globals>
	<Material>
		<material id="1" name="Fluid domain" type="biphasic-FSI">
			<phi0>0</phi0>
			<solid type="neo-Hookean">
				<density>0</density>
				<E>1e-08</E>
				<v>0</v>
			</solid>
			<fluid>
				<density>1</density>
				<k>2e+10</k>
				<viscous type="Newtonian fluid">
					<kappa>0</kappa>
					<mu>0</mu>
				</viscous>
			</fluid>
			<permeability type="perm-const-iso">
				<perm>0</perm>
			</permeability>
			<solvent_supply type="Starling">
				<kp>1</kp>
				<pv lc="1">10000</pv>
			</solvent_supply>
		</material>
		<material id="2" name="Solid domain" type="neo-Hookean">
			<density>1</density>
			<E>400000</E>
			<v>0</v>
		</material>
	</Material>
	<Mesh>
		<Nodes name="MergedObject1">
			<node id="1">0,0,0</node>
			<node id="2">0.125,0,0</node>
			<node id="3">0.12259816,0.0243862903,0</node>
			<node id="4">0.115484942,0.047835429,0</node>
			<node id="5">0.103933702,0.0694462791,0</node>
			<node id="6">0.0883883476,0.0883883476,0</node>
			<node id="7">0.0694462791,0.103933702,0</node>
			<node id="8">0.047835429,0.115484942,0</node>
			<node id="9">0.0243862903,0.12259816,0</node>
			<node id="10">7.65404249e-18,0.125,0</node>
			<node id="11">-0.0243862903,0.12259816,0</node>
			<node id="12">-0.047835429,0.115484942,0</node>
			<node id="13">-0.0694462791,0.103933702,0</node>
			<node id="14">-0.0883883476,0.0883883476,0</node>
			<node id="15">-0.103933702,0.0694462791,0</node>
			<node id="16">-0.115484942,0.047835429,0</node>
			<node id="17">-0.12259816,0.0243862903,0</node>
			<node id="18">-0.125,1.5308085e-17,0</node>
			<node id="19">-0.12259816,-0.0243862903,0</node>
			<node id="20">-0.115484942,-0.047835429,0</node>
<!-- ... 686 like lines cut -->
		</Nodes>
		<Elements type="penta6" name="Part1">
			<elem id="1">1,2,3,254,255,256</elem>
			<elem id="2">1,3,4,254,256,257</elem>
			<elem id="3">1,4,5,254,257,258</elem>
			<elem id="4">1,5,6,254,258,259</elem>
			<elem id="5">1,6,7,254,259,260</elem>
			<elem id="6">1,7,8,254,260,261</elem>
			<elem id="7">1,8,9,254,261,262</elem>
			<elem id="8">1,9,10,254,262,263</elem>
			<elem id="9">1,10,11,254,263,264</elem>
			<elem id="10">1,11,12,254,264,265</elem>
			<elem id="11">1,12,13,254,265,266</elem>
			<elem id="12">1,13,14,254,266,267</elem>
			<elem id="13">1,14,15,254,267,268</elem>
			<elem id="14">1,15,16,254,268,269</elem>
			<elem id="15">1,16,17,254,269,270</elem>
			<elem id="16">1,17,18,254,270,271</elem>
			<elem id="17">1,18,19,254,271,272</elem>
			<elem id="18">1,19,20,254,272,273</elem>
			<elem id="19">1,20,21,254,273,274</elem>
			<elem id="20">1,21,22,254,274,275</elem>
<!-- ... 12 like lines cut -->
		</Elements>
		<Elements type="hex8" name="Part1__2">
			<elem id="33">2,34,35,3,255,287,288,256</elem>
			<elem id="34">3,35,36,4,256,288,289,257</elem>
			<elem id="35">4,36,37,5,257,289,290,258</elem>
			<elem id="36">5,37,38,6,258,290,291,259</elem>
			<elem id="37">6,38,39,7,259,291,292,260</elem>
			<elem id="38">7,39,40,8,260,292,293,261</elem>
			<elem id="39">8,40,41,9,261,293,294,262</elem>
			<elem id="40">9,41,42,10,262,294,295,263</elem>
			<elem id="41">10,42,43,11,263,295,296,264</elem>
			<elem id="42">11,43,44,12,264,296,297,265</elem>
			<elem id="43">12,44,45,13,265,297,298,266</elem>
			<elem id="44">13,45,46,14,266,298,299,267</elem>
			<elem id="45">14,46,47,15,267,299,300,268</elem>
			<elem id="46">15,47,48,16,268,300,301,269</elem>
			<elem id="47">16,48,49,17,269,301,302,270</elem>
			<elem id="48">17,49,50,18,270,302,303,271</elem>
			<elem id="49">18,50,51,19,271,303,304,272</elem>
			<elem id="50">19,51,52,20,272,304,305,273</elem>
			<elem id="51">20,52,53,21,273,305,306,274</elem>
			<elem id="52">21,53,54,22,274,306,307,275</elem>
<!-- ... 204 like lines cut -->
		</Elements>
		<Elements type="hex8" name="Part3">
			<elem id="257">507,523,607,226,515,526,609,479</elem>
			<elem id="258">523,524,608,607,526,525,610,609</elem>
			<elem id="259">524,508,527,608,525,516,540,610</elem>
			<elem id="260">226,607,605,227,479,609,611,480</elem>
			<elem id="261">607,608,606,605,609,610,612,611</elem>
			<elem id="262">608,527,528,606,610,540,539,612</elem>
			<elem id="263">227,605,603,228,480,611,613,481</elem>
			<elem id="264">605,606,604,603,611,612,614,613</elem>
			<elem id="265">606,528,529,604,612,539,538,614</elem>
			<elem id="266">228,603,601,229,481,613,615,482</elem>
			<elem id="267">603,604,602,601,613,614,616,615</elem>
			<elem id="268">604,529,530,602,614,538,537,616</elem>
			<elem id="269">229,601,599,230,482,615,617,483</elem>
			<elem id="270">601,602,600,599,615,616,618,617</elem>
			<elem id="271">602,530,531,600,616,537,536,618</elem>
			<elem id="272">230,599,597,231,483,617,619,484</elem>
			<elem id="273">599,600,598,597,617,618,620,619</elem>
			<elem id="274">600,531,532,598,618,536,535,620</elem>
			<elem id="275">231,597,595,232,484,619,621,485</elem>
			<elem id="276">597,598,596,595,619,620,622,621</elem>
<!-- ... 76 like lines cut -->
		</Elements>
		<NodeSet name="ZeroDisplacement2">
			509, 510, 513, 514, 517, 518, 521, 522
		</NodeSet>
		<NodeSet name="ZeroDisplacement3">
			507, 508, 511, 512, 515, 516, 519, 520
		</NodeSet>
		<Surface name="BiphasicFSITraction1">
			<quad4 id="1">507,226,479,515</quad4>
			<quad4 id="2">226,227,480,479</quad4>
			<quad4 id="3">227,228,481,480</quad4>
			<quad4 id="4">228,229,482,481</quad4>
			<quad4 id="5">229,230,483,482</quad4>
			<quad4 id="6">230,231,484,483</quad4>
			<quad4 id="7">231,232,485,484</quad4>
			<quad4 id="8">232,509,517,485</quad4>
			<quad4 id="9">509,233,486,517</quad4>
			<quad4 id="10">233,234,487,486</quad4>
			<quad4 id="11">234,235,488,487</quad4>
			<quad4 id="12">235,236,489,488</quad4>
			<quad4 id="13">236,237,490,489</quad4>
			<quad4 id="14">237,238,491,490</quad4>
			<quad4 id="15">238,239,492,491</quad4>
			<quad4 id="16">239,511,519,492</quad4>
			<quad4 id="17">511,240,493,519</quad4>
			<quad4 id="18">240,241,494,493</quad4>
			<quad4 id="19">241,242,495,494</quad4>
			<quad4 id="20">242,243,496,495</quad4>
<!-- ... 12 like lines cut -->
		</Surface>
		<Surface name="ZeroDisplacement1">
			<tri3 id="1">1,3,2</tri3>
			<tri3 id="2">1,4,3</tri3>
			<tri3 id="3">1,5,4</tri3>
			<tri3 id="4">1,6,5</tri3>
			<tri3 id="5">1,7,6</tri3>
			<tri3 id="6">1,8,7</tri3>
			<tri3 id="7">1,9,8</tri3>
			<tri3 id="8">1,10,9</tri3>
			<tri3 id="9">1,11,10</tri3>
			<tri3 id="10">1,12,11</tri3>
			<tri3 id="11">1,13,12</tri3>
			<tri3 id="12">1,14,13</tri3>
			<tri3 id="13">1,15,14</tri3>
			<tri3 id="14">1,16,15</tri3>
			<tri3 id="15">1,17,16</tri3>
			<tri3 id="16">1,18,17</tri3>
			<tri3 id="17">1,19,18</tri3>
			<tri3 id="18">1,20,19</tri3>
			<tri3 id="19">1,21,20</tri3>
			<tri3 id="20">1,22,21</tri3>
<!-- ... 12 like lines cut -->
			<quad4 id="33">3,35,34,2</quad4>
			<quad4 id="34">4,36,35,3</quad4>
			<quad4 id="35">5,37,36,4</quad4>
			<quad4 id="36">6,38,37,5</quad4>
			<quad4 id="37">7,39,38,6</quad4>
			<quad4 id="38">8,40,39,7</quad4>
			<quad4 id="39">9,41,40,8</quad4>
			<quad4 id="40">10,42,41,9</quad4>
			<quad4 id="41">11,43,42,10</quad4>
			<quad4 id="42">12,44,43,11</quad4>
			<quad4 id="43">13,45,44,12</quad4>
			<quad4 id="44">14,46,45,13</quad4>
			<quad4 id="45">15,47,46,14</quad4>
			<quad4 id="46">16,48,47,15</quad4>
			<quad4 id="47">17,49,48,16</quad4>
			<quad4 id="48">18,50,49,17</quad4>
			<quad4 id="49">19,51,50,18</quad4>
			<quad4 id="50">20,52,51,19</quad4>
			<quad4 id="51">21,53,52,20</quad4>
			<quad4 id="52">22,54,53,21</quad4>
<!-- ... 204 like lines cut -->
			<tri3 id="257">254,255,256</tri3>
			<tri3 id="258">254,256,257</tri3>
			<tri3 id="259">254,257,258</tri3>
			<tri3 id="260">254,258,259</tri3>
			<tri3 id="261">254,259,260</tri3>
			<tri3 id="262">254,260,261</tri3>
			<tri3 id="263">254,261,262</tri3>
			<tri3 id="264">254,262,263</tri3>
			<tri3 id="265">254,263,264</tri3>
			<tri3 id="266">254,264,265</tri3>
			<tri3 id="267">254,265,266</tri3>
			<tri3 id="268">254,266,267</tri3>
			<tri3 id="269">254,267,268</tri3>
			<tri3 id="270">254,268,269</tri3>
			<tri3 id="271">254,269,270</tri3>
			<tri3 id="272">254,270,271</tri3>
			<tri3 id="273">254,271,272</tri3>
			<tri3 id="274">254,272,273</tri3>
			<tri3 id="275">254,273,274</tri3>
			<tri3 id="276">254,274,275</tri3>
<!-- ... 12 like lines cut -->
			<quad4 id="289">255,287,288,256</quad4>
			<quad4 id="290">256,288,289,257</quad4>
			<quad4 id="291">257,289,290,258</quad4>
			<quad4 id="292">258,290,291,259</quad4>
			<quad4 id="293">259,291,292,260</quad4>
			<quad4 id="294">260,292,293,261</quad4>
			<quad4 id="295">261,293,294,262</quad4>
			<quad4 id="296">262,294,295,263</quad4>
			<quad4 id="297">263,295,296,264</quad4>
			<quad4 id="298">264,296,297,265</quad4>
			<quad4 id="299">265,297,298,266</quad4>
			<quad4 id="300">266,298,299,267</quad4>
			<quad4 id="301">267,299,300,268</quad4>
			<quad4 id="302">268,300,301,269</quad4>
			<quad4 id="303">269,301,302,270</quad4>
			<quad4 id="304">270,302,303,271</quad4>
			<quad4 id="305">271,303,304,272</quad4>
			<quad4 id="306">272,304,305,273</quad4>
			<quad4 id="307">273,305,306,274</quad4>
			<quad4 id="308">274,306,307,275</quad4>
<!-- ... 396 like lines cut -->
		</Surface>
	</Mesh>
	<MeshDomains>
		<SolidDomain name="Part1" mat="Fluid domain"/>
		<SolidDomain name="Part1__2" mat="Fluid domain"/>
		<SolidDomain name="Part3" mat="Solid domain"/>
	</MeshDomains>
	<Boundary>
		<bc name="ZeroDisplacement1" node_set="@surface:ZeroDisplacement1" type="zero displacement">
			<x_dof>0</x_dof>
			<y_dof>0</y_dof>
			<z_dof>1</z_dof>
		</bc>
		<bc name="ZeroDisplacement2" node_set="ZeroDisplacement2" type="zero displacement">
			<x_dof>1</x_dof>
			<y_dof>0</y_dof>
			<z_dof>0</z_dof>
		</bc>
		<bc name="ZeroDisplacement3" node_set="ZeroDisplacement3" type="zero displacement">
			<x_dof>0</x_dof>
			<y_dof>1</y_dof>
			<z_dof>0</z_dof>
		</bc>
	</Boundary>
	<Loads>
		<surface_load name="BiphasicFSITraction1" surface="BiphasicFSITraction1" type="biphasic-FSI traction">
			<shell_bottom>0</shell_bottom>
		</surface_load>
	</Loads>
	<LoadData>
		<load_controller id="1" name="LC1" type="loadcurve">
			<interpolate>CONTROL POINTS</interpolate>
			<extend>CONSTANT</extend>
			<points>
				<pt>0,0</pt>
				<pt>0.49,0</pt>
				<pt>0.51,1</pt>
				<pt>1,1</pt>
			</points>
		</load_controller>
	</LoadData>
	<Output>
		<plotfile type="febio">
			<var type="displacement"/>
			<var type="velocity"/>
			<var type="acceleration"/>
			<var type="fluid pressure"/>
			<var type="fluid stress"/>
			<var type="fluid velocity"/>
			<var type="fluid acceleration"/>
			<var type="fluid vorticity"/>
			<var type="fluid rate of deformation"/>
			<var type="fluid dilatation"/>
			<var type="fluid volume ratio"/>
			<var type="porosity"/>
		</plotfile>
	</Output>
</febio_spec>
