<?xml version="1.0" encoding="ISO-8859-1"?>
<!--
1D biphasic contact between two bricks under displacement control
(stressrelaxation).
-->
<febio_spec version="4.0">
	<Module type="biphasic"/>
	<Control>
		<analysis>TRANSIENT</analysis>
		<time_steps>30000</time_steps>
		<step_size>0.1</step_size>
		<plot_zero_state>0</plot_zero_state>
		<plot_range>0,-1</plot_range>
		<plot_level>PLOT_MAJOR_ITRS</plot_level>
		<output_level>OUTPUT_MAJOR_ITRS</output_level>
		<plot_stride>1</plot_stride>
		<adaptor_re_solve>1</adaptor_re_solve>
		<time_stepper type="default">
			<max_retries>5</max_retries>
			<opt_iter>10</opt_iter>
			<dtmin>0.01</dtmin>
			<dtmax lc="1">0</dtmax>
			<aggressiveness>0</aggressiveness>
			<cutback>0.5</cutback>
			<dtforce>0</dtforce>
		</time_stepper>
		<solver type="biphasic">
			<symmetric_stiffness>non-symmetric</symmetric_stiffness>
			<equation_scheme>staggered</equation_scheme>
			<equation_order>default</equation_order>
			<optimize_bw>0</optimize_bw>
			<lstol>0.9</lstol>
			<lsmin>0.01</lsmin>
			<lsiter>5</lsiter>
			<max_refs>15</max_refs>
			<check_zero_diagonal>0</check_zero_diagonal>
			<zero_diagonal_tol>0</zero_diagonal_tol>
			<force_partition>0</force_partition>
			<reform_each_time_step>1</reform_each_time_step>
			<reform_augment>0</reform_augment>
			<diverge_reform>1</diverge_reform>
			<min_residual>1e-20</min_residual>
			<max_residual>0</max_residual>
			<dtol>0.001</dtol>
			<etol>0.01</etol>
			<rtol>0</rtol>
			<rhoi>-2</rhoi>
			<alpha>1</alpha>
			<beta>0.25</beta>
			<gamma>0.5</gamma>
			<logSolve>0</logSolve>
			<arc_length>0</arc_length>
			<arc_length_scale>0</arc_length_scale>
			<ptol>0.01</ptol>
			<mixed_formulation>0</mixed_formulation>
			<qn_method type="Broyden">
				<max_ups>0</max_ups>
				<max_buffer_size>0</max_buffer_size>
				<cycle_buffer>1</cycle_buffer>
				<cmax>100000</cmax>
			</qn_method>
		</solver>
	</Control>
	<Globals>
		<Constants>
			<T>0</T>
			<R>0</R>
			<Fc>0</Fc>
		</Constants>
	</Globals>
	<Material>
		<material id="1" name="Biphasic material" type="biphasic">
			<phi0>0.2</phi0>
			<fluid_density>1</fluid_density>
			<tau>0</tau>
			<solid type="Holmes-Mow">
				<density>1</density>
				<E>1</E>
				<v>0</v>
				<beta>0.3</beta>
			</solid>
			<permeability type="perm-Holmes-Mow">
				<perm>0.001</perm>
				<M>2</M>
				<alpha>0</alpha>
			</permeability>
		</material>
	</Material>
	<Mesh>
		<Nodes name="Object01">
			<node id="1">-0.5,-1,0</node>
			<node id="2">-0.5,-1,1</node>
			<node id="3">-0.5,-0.99283808,0</node>
			<node id="4">-0.5,-0.99283808,1</node>
			<node id="5">-0.5,-0.98281139,0</node>
			<node id="6">-0.5,-0.98281139,1</node>
			<node id="7">-0.5,-0.96877402,0</node>
			<node id="8">-0.5,-0.96877402,1</node>
			<node id="9">-0.5,-0.94912171,0</node>
			<node id="10">-0.5,-0.94912171,1</node>
			<node id="11">-0.5,-0.92160847,0</node>
			<node id="12">-0.5,-0.92160847,1</node>
			<node id="13">-0.5,-0.88308993,0</node>
			<node id="14">-0.5,-0.88308993,1</node>
			<node id="15">-0.5,-0.82916399,0</node>
			<node id="16">-0.5,-0.82916399,1</node>
			<node id="17">-0.5,-0.75366766,0</node>
			<node id="18">-0.5,-0.75366766,1</node>
			<node id="19">-0.5,-0.6479728,0</node>
			<node id="20">-0.5,-0.6479728,1</node>
<!-- ... 148 like lines cut -->
		</Nodes>
		<Elements type="hex8" name="Part1">
			<elem id="1">1,43,45,3,2,44,46,4</elem>
			<elem id="2">3,45,47,5,4,46,48,6</elem>
			<elem id="3">5,47,49,7,6,48,50,8</elem>
			<elem id="4">7,49,51,9,8,50,52,10</elem>
			<elem id="5">9,51,53,11,10,52,54,12</elem>
			<elem id="6">11,53,55,13,12,54,56,14</elem>
			<elem id="7">13,55,57,15,14,56,58,16</elem>
			<elem id="8">15,57,59,17,16,58,60,18</elem>
			<elem id="9">17,59,61,19,18,60,62,20</elem>
			<elem id="10">19,61,63,21,20,62,64,22</elem>
			<elem id="11">21,63,65,23,22,64,66,24</elem>
			<elem id="12">23,65,67,25,24,66,68,26</elem>
			<elem id="13">25,67,69,27,26,68,70,28</elem>
			<elem id="14">27,69,71,29,28,70,72,30</elem>
			<elem id="15">29,71,73,31,30,72,74,32</elem>
			<elem id="16">31,73,75,33,32,74,76,34</elem>
			<elem id="17">33,75,77,35,34,76,78,36</elem>
			<elem id="18">35,77,79,37,36,78,80,38</elem>
			<elem id="19">37,79,81,39,38,80,82,40</elem>
			<elem id="20">39,81,83,41,40,82,84,42</elem>
<!-- ... 20 like lines cut -->
		</Elements>
		<NodeSet name="FixedDisplacement01">
			1, 2, 3, 4, 5, 6, 7, 8,
			9, 10, 11, 12, 13, 14, 15, 16,
			17, 18, 19, 20, 21, 22, 23, 24,
			25, 26, 27, 28, 29, 30, 31, 32,
			33, 34, 35, 36, 37, 38, 39, 40,
			41, 42, 43, 44, 45, 46, 47, 48,
			49, 50, 51, 52, 53, 54, 55, 56,
			57, 58, 59, 60, 61, 62, 63, 64,
			65, 66, 67, 68, 69, 70, 71, 72,
			73, 74, 75, 76, 77, 78, 79, 80,
			81, 82, 83, 84, 85, 86, 87, 88,
			89, 90, 91, 92, 93, 94, 95, 96,
			97, 98, 99, 100, 101, 102, 103, 104,
			105, 106, 107, 108, 109, 110, 111, 112,
			113, 114, 115, 116, 117, 118, 119, 120,
			121, 122, 123, 124, 125, 126, 127, 128,
			129, 130, 131, 132, 133, 134, 135, 136,
			137, 138, 139, 140, 141, 142, 143, 144,
			145, 146, 147, 148, 149, 150, 151, 152,
			153, 154, 155, 156, 157, 158, 159, 160,
			161, 162, 163, 164, 165, 166, 167, 168
		</NodeSet>
		<NodeSet name="FixedDisplacement02">
			1, 2, 3, 4, 5, 6, 7, 8,
			9, 10, 11, 12, 13, 14, 15, 16,
			17, 18, 19, 20, 21, 22, 23, 24,
			25, 26, 27, 28, 29, 30, 31, 32,
			33, 34, 35, 36, 37, 38, 39, 40,
			41, 42, 43, 44, 45, 46, 47, 48,
			49, 50, 51, 52, 53, 54, 55, 56,
			57, 58, 59, 60, 61, 62, 63, 64,
			65, 66, 67, 68, 69, 70, 71, 72,
			73, 74, 75, 76, 77, 78, 79, 80,
			81, 82, 83, 84, 85, 86, 87, 88,
			89, 90, 91, 92, 93, 94, 95, 96,
			97, 98, 99, 100, 101, 102, 103, 104,
			105, 106, 107, 108, 109, 110, 111, 112,
			113, 114, 115, 116, 117, 118, 119, 120,
			121, 122, 123, 124, 125, 126, 127, 128,
			129, 130, 131, 132, 133, 134, 135, 136,
			137, 138, 139, 140, 141, 142, 143, 144,
			145, 146, 147, 148, 149, 150, 151, 152,
			153, 154, 155, 156, 157, 158, 159, 160,
			161, 162, 163, 164, 165, 166, 167, 168
		</NodeSet>
		<NodeSet name="FixedDisplacement03">
			1, 2, 43, 44
		</NodeSet>
		<NodeSet name="FixedFluidPressure01">
			1, 2, 43, 44
		</NodeSet>
		<NodeSet name="PrescribedBC09">
			125, 126, 167, 168
		</NodeSet>
		<Surface name="PrimarySurface01">
			<quad4 id="1">85,127,128,86</quad4>
		</Surface>
		<Surface name="SecondarySurface01">
			<quad4 id="1">83,41,42,84</quad4>
		</Surface>
		<ElementSet name="unnamed_set01">
			2
		</ElementSet>
		<SurfacePair name="BiphasicContact01">
			<primary>PrimarySurface01</primary>
			<secondary>SecondarySurface01</secondary>
		</SurfacePair>
	</Mesh>
	<MeshDomains>
		<SolidDomain name="Part1" mat="Biphasic material"/>
	</MeshDomains>
	<Boundary>
		<bc name="FixedDisplacement01" node_set="FixedDisplacement01" type="zero displacement">
			<x_dof>1</x_dof>
			<y_dof>0</y_dof>
			<z_dof>0</z_dof>
		</bc>
		<bc name="FixedDisplacement02" node_set="FixedDisplacement02" type="zero displacement">
			<x_dof>0</x_dof>
			<y_dof>0</y_dof>
			<z_dof>1</z_dof>
		</bc>
		<bc name="FixedDisplacement03" node_set="FixedDisplacement03" type="zero displacement">
			<x_dof>0</x_dof>
			<y_dof>1</y_dof>
			<z_dof>0</z_dof>
		</bc>
		<bc name="FixedFluidPressure01" node_set="FixedFluidPressure01" type="zero fluid pressure"/>
		<bc name="PrescribedBC09" node_set="PrescribedBC09" type="prescribed displacement">
			<dof>y</dof>
			<value lc="2">1</value>
			<relative>0</relative>
		</bc>
	</Boundary>
	<Contact>
		<contact name="BiphasicContact01" surface_pair="BiphasicContact01" type="sliding-biphasic">
			<laugon>AUGLAG</laugon>
			<tolerance>0.2</tolerance>
			<gaptol>0</gaptol>
			<ptol>0</ptol>
			<penalty>1</penalty>
			<auto_penalty>1</auto_penalty>
			<update_penalty>0</update_penalty>
			<two_pass>1</two_pass>
			<knmult>0</knmult>
			<search_tol>0.01</search_tol>
			<pressure_penalty>1</pressure_penalty>
			<symmetric_stiffness>0</symmetric_stiffness>
			<search_radius>1</search_radius>
			<seg_up>0</seg_up>
			<minaug>0</minaug>
			<maxaug>10</maxaug>
			<node_reloc>0</node_reloc>
			<fric_coeff>0</fric_coeff>
			<contact_frac>0</contact_frac>
			<smooth_aug>0</smooth_aug>
			<smooth_fls>0</smooth_fls>
			<flip_primary>0</flip_primary>
			<flip_secondary>0</flip_secondary>
			<shell_bottom_primary>0</shell_bottom_primary>
			<shell_bottom_secondary>0</shell_bottom_secondary>
		</contact>
	</Contact>
	<LoadData>
		<load_controller id="1" name="LC1" type="loadcurve">
			<interpolate>STEP</interpolate>
			<extend>CONSTANT</extend>
			<points>
				<pt>0,0</pt>
				<pt>500,20</pt>
				<pt>1000,20</pt>
				<pt>3000,100</pt>
			</points>
		</load_controller>
		<load_controller id="2" name="LC2" type="loadcurve">
			<interpolate>LINEAR</interpolate>
			<extend>CONSTANT</extend>
			<points>
				<pt>0,0</pt>
				<pt>500,-0.5</pt>
			</points>
		</load_controller>
	</LoadData>
	<Output>
		<plotfile type="febio">
			<var type="contact gap"/>
			<var type="contact pressure"/>
			<var type="displacement"/>
			<var type="relative volume"/>
			<var type="stress"/>
			<var type="effective fluid pressure"/>
			<var type="fluid flux"/>
		</plotfile>
		<logfile>
			<element_data data="p" elem_set="unnamed_set01"/>
		</logfile>
	</Output>
</febio_spec>
