<?xml version="1.0" encoding="ISO-8859-1"?>
<!--
2D biphasic contact between a semicylindrical block and a rectangular
block under displacement control.
-->
<febio_spec version="4.0">
	<Module type="biphasic"/>
	<Control>
		<analysis>TRANSIENT</analysis>
		<time_steps>1000</time_steps>
		<step_size>1</step_size>
		<plot_zero_state>0</plot_zero_state>
		<plot_range>0,-1</plot_range>
		<plot_level>PLOT_MAJOR_ITRS</plot_level>
		<output_level>OUTPUT_MAJOR_ITRS</output_level>
		<plot_stride>1</plot_stride>
		<adaptor_re_solve>1</adaptor_re_solve>
		<time_stepper type="default">
			<max_retries>5</max_retries>
			<opt_iter>10</opt_iter>
			<dtmin>0.1</dtmin>
			<dtmax lc="1">0</dtmax>
			<aggressiveness>0</aggressiveness>
			<cutback>0.5</cutback>
			<dtforce>0</dtforce>
		</time_stepper>
		<solver type="biphasic">
			<symmetric_stiffness>non-symmetric</symmetric_stiffness>
			<equation_scheme>staggered</equation_scheme>
			<equation_order>default</equation_order>
			<optimize_bw>0</optimize_bw>
			<lstol>0.9</lstol>
			<lsmin>0.01</lsmin>
			<lsiter>5</lsiter>
			<max_refs>25</max_refs>
			<check_zero_diagonal>0</check_zero_diagonal>
			<zero_diagonal_tol>0</zero_diagonal_tol>
			<force_partition>0</force_partition>
			<reform_each_time_step>1</reform_each_time_step>
			<reform_augment>0</reform_augment>
			<diverge_reform>1</diverge_reform>
			<min_residual>1e-20</min_residual>
			<max_residual>0</max_residual>
			<dtol>0.001</dtol>
			<etol>0.01</etol>
			<rtol>0</rtol>
			<rhoi>-2</rhoi>
			<alpha>1</alpha>
			<beta>0.25</beta>
			<gamma>0.5</gamma>
			<logSolve>0</logSolve>
			<arc_length>0</arc_length>
			<arc_length_scale>0</arc_length_scale>
			<ptol>0.01</ptol>
			<mixed_formulation>0</mixed_formulation>
			<qn_method type="Broyden">
				<max_ups>0</max_ups>
				<max_buffer_size>0</max_buffer_size>
				<cycle_buffer>1</cycle_buffer>
				<cmax>100000</cmax>
			</qn_method>
		</solver>
	</Control>
	<Globals>
		<Constants>
			<T>0</T>
			<R>0</R>
			<Fc>0</Fc>
		</Constants>
	</Globals>
	<Material>
		<material id="1" name="Biphasic material" type="biphasic">
			<phi0>0.2</phi0>
			<fluid_density>1</fluid_density>
			<tau>0</tau>
			<solid type="Holmes-Mow">
				<density>1</density>
				<E>1</E>
				<v>0</v>
				<beta>2</beta>
			</solid>
			<permeability type="perm-Holmes-Mow">
				<perm>0.001</perm>
				<M>2</M>
				<alpha>0</alpha>
			</permeability>
		</material>
	</Material>
	<Mesh>
		<Nodes name="Object01">
			<node id="1">0,-1,0</node>
			<node id="2">0,-1,1</node>
			<node id="3">0,-0.98546289,0</node>
			<node id="4">0,-0.98546289,1</node>
			<node id="5">0,-0.96511093,0</node>
			<node id="6">0,-0.96511093,1</node>
			<node id="7">0,-0.93661819,0</node>
			<node id="8">0,-0.93661819,1</node>
			<node id="9">0,-0.89672835,0</node>
			<node id="10">0,-0.89672835,1</node>
			<node id="11">0,-0.84088258,0</node>
			<node id="12">0,-0.84088258,1</node>
			<node id="13">0,-0.7626985,0</node>
			<node id="14">0,-0.7626985,1</node>
			<node id="15">0,-0.65324079,0</node>
			<node id="16">0,-0.65324079,1</node>
			<node id="17">0,-0.5,0</node>
			<node id="18">0,-0.5,1</node>
			<node id="19">0,-0.34675921,0</node>
			<node id="20">0,-0.34675921,1</node>
<!-- ... 1904 like lines cut -->
		</Nodes>
		<Elements type="hex8" name="Part3">
			<elem id="1">1,35,37,3,2,36,38,4</elem>
			<elem id="2">3,37,39,5,4,38,40,6</elem>
			<elem id="3">5,39,41,7,6,40,42,8</elem>
			<elem id="4">7,41,43,9,8,42,44,10</elem>
			<elem id="5">9,43,45,11,10,44,46,12</elem>
			<elem id="6">11,45,47,13,12,46,48,14</elem>
			<elem id="7">13,47,49,15,14,48,50,16</elem>
			<elem id="8">15,49,51,17,16,50,52,18</elem>
			<elem id="9">17,51,53,19,18,52,54,20</elem>
			<elem id="10">19,53,55,21,20,54,56,22</elem>
			<elem id="11">21,55,57,23,22,56,58,24</elem>
			<elem id="12">23,57,59,25,24,58,60,26</elem>
			<elem id="13">25,59,61,27,26,60,62,28</elem>
			<elem id="14">27,61,63,29,28,62,64,30</elem>
			<elem id="15">29,63,65,31,30,64,66,32</elem>
			<elem id="16">31,65,67,33,32,66,68,34</elem>
			<elem id="17">35,69,71,37,36,70,72,38</elem>
			<elem id="18">37,71,73,39,38,72,74,40</elem>
			<elem id="19">39,73,75,41,40,74,76,42</elem>
			<elem id="20">41,75,77,43,42,76,78,44</elem>
<!-- ... 852 like lines cut -->
		</Elements>
		<Elements type="penta6" name="Part3(2)">
			<elem id="873">1123,1125,1126,1524,1526,1527</elem>
			<elem id="874">1123,1126,1127,1524,1527,1528</elem>
			<elem id="875">1123,1127,1128,1524,1528,1529</elem>
			<elem id="876">1123,1128,1129,1524,1529,1530</elem>
			<elem id="877">1123,1129,1130,1524,1530,1531</elem>
			<elem id="878">1123,1130,1131,1524,1531,1532</elem>
			<elem id="879">1123,1131,1132,1524,1532,1533</elem>
			<elem id="880">1123,1132,1133,1524,1533,1534</elem>
			<elem id="881">1123,1133,1134,1524,1534,1535</elem>
			<elem id="882">1123,1134,1135,1524,1535,1536</elem>
			<elem id="883">1123,1135,1136,1524,1536,1537</elem>
			<elem id="884">1123,1136,1137,1524,1537,1538</elem>
			<elem id="885">1123,1137,1138,1524,1538,1539</elem>
			<elem id="886">1123,1138,1139,1524,1539,1540</elem>
			<elem id="887">1123,1139,1140,1524,1540,1541</elem>
			<elem id="888">1123,1140,1141,1524,1541,1542</elem>
			<elem id="889">1123,1141,1142,1524,1542,1543</elem>
			<elem id="890">1123,1142,1143,1524,1543,1544</elem>
			<elem id="891">1123,1143,1144,1524,1544,1545</elem>
			<elem id="892">1123,1144,1145,1524,1545,1546</elem>
<!-- ... 4 like lines cut -->
		</Elements>
		<NodeSet name="FixedDisplacement01">
			1, 2, 3, 4, 5, 6, 7, 8,
			9, 10, 11, 12, 13, 14, 15, 16,
			17, 18, 19, 20, 21, 22, 23, 24,
			25, 26, 27, 28, 29, 30, 31, 32,
			33, 34, 35, 36, 37, 38, 39, 40,
			41, 42, 43, 44, 45, 46, 47, 48,
			49, 50, 51, 52, 53, 54, 55, 56,
			57, 58, 59, 60, 61, 62, 63, 64,
			65, 66, 67, 68, 69, 70, 71, 72,
			73, 74, 75, 76, 77, 78, 79, 80,
			81, 82, 83, 84, 85, 86, 87, 88,
			89, 90, 91, 92, 93, 94, 95, 96,
			97, 98, 99, 100, 101, 102, 103, 104,
			105, 106, 107, 108, 109, 110, 111, 112,
			113, 114, 115, 116, 117, 118, 119, 120,
			121, 122, 123, 124, 125, 126, 127, 128,
			129, 130, 131, 132, 133, 134, 135, 136,
			137, 138, 139, 140, 141, 142, 143, 144,
			145, 146, 147, 148, 149, 150, 151, 152,
			153, 154, 155, 156, 157, 158, 159, 160,
<!-- ... 221 like lines cut -->
		</NodeSet>
		<NodeSet name="FixedDisplacement02">
			1, 2, 3, 4, 5, 6, 7, 8,
			9, 10, 11, 12, 13, 14, 15, 16,
			17, 18, 19, 20, 21, 22, 23, 24,
			25, 26, 27, 28, 29, 30, 31, 32,
			33, 34, 35, 36, 69, 70, 103, 104,
			137, 138, 171, 172, 205, 206, 239, 240,
			273, 274, 307, 308, 341, 342, 375, 376,
			409, 410, 443, 444, 477, 478, 511, 512,
			545, 546, 579, 580, 613, 614, 647, 648,
			681, 682, 715, 716, 749, 750, 783, 784,
			817, 818, 851, 852, 885, 886, 919, 920,
			953, 954, 987, 988, 1021, 1022, 1055, 1056,
			1089, 1090, 1123, 1124, 1125, 1149, 1150, 1174,
			1175, 1199, 1200, 1224, 1225, 1249, 1250, 1274,
			1275, 1299, 1300, 1324, 1325, 1349, 1350, 1374,
			1375, 1399, 1400, 1424, 1425, 1449, 1450, 1474,
			1475, 1499, 1500, 1524, 1525, 1526, 1550, 1551,
			1575, 1576, 1600, 1601, 1625, 1626, 1650, 1651,
			1675, 1676, 1700, 1701, 1725, 1726, 1750, 1751,
			1775, 1776, 1800, 1801, 1825, 1826, 1850, 1851,
			1875, 1876, 1900, 1901
		</NodeSet>
		<NodeSet name="FixedDisplacement03">
			1, 2, 35, 36, 69, 70, 103, 104,
			137, 138, 171, 172, 205, 206, 239, 240,
			273, 274, 307, 308, 341, 342, 375, 376,
			409, 410, 443, 444, 477, 478, 511, 512,
			545, 546, 579, 580, 613, 614, 647, 648,
			681, 682, 715, 716, 749, 750, 783, 784,
			817, 818, 851, 852, 885, 886, 919, 920,
			953, 954, 987, 988, 1021, 1022, 1055, 1056,
			1089, 1090
		</NodeSet>
		<NodeSet name="FixedFluidPressure01">
			1089, 1090, 1091, 1092, 1093, 1094, 1095, 1096,
			1097, 1098, 1099, 1100, 1101, 1102, 1103, 1104,
			1105, 1106, 1107, 1108, 1109, 1110, 1111, 1112,
			1113, 1114, 1115, 1116, 1117, 1118, 1119, 1120,
			1121, 1122
		</NodeSet>
		<NodeSet name="PrescribedBC11">
			1123, 1124, 1149, 1174, 1199, 1224, 1249, 1274,
			1299, 1324, 1349, 1374, 1399, 1424, 1449, 1474,
			1499, 1524, 1525, 1550, 1575, 1600, 1625, 1650,
			1675, 1700, 1725, 1750, 1775, 1800, 1825, 1850,
			1875, 1900
		</NodeSet>
		<Surface name="PrimarySurface01">
			<quad4 id="1">1500,1501,1902,1901</quad4>
			<quad4 id="2">1501,1502,1903,1902</quad4>
			<quad4 id="3">1502,1503,1904,1903</quad4>
			<quad4 id="4">1503,1504,1905,1904</quad4>
			<quad4 id="5">1504,1505,1906,1905</quad4>
			<quad4 id="6">1505,1506,1907,1906</quad4>
			<quad4 id="7">1506,1507,1908,1907</quad4>
			<quad4 id="8">1507,1508,1909,1908</quad4>
			<quad4 id="9">1508,1509,1910,1909</quad4>
			<quad4 id="10">1509,1510,1911,1910</quad4>
			<quad4 id="11">1510,1511,1912,1911</quad4>
			<quad4 id="12">1511,1512,1913,1912</quad4>
			<quad4 id="13">1512,1513,1914,1913</quad4>
			<quad4 id="14">1513,1514,1915,1914</quad4>
			<quad4 id="15">1514,1515,1916,1915</quad4>
			<quad4 id="16">1515,1516,1917,1916</quad4>
			<quad4 id="17">1516,1517,1918,1917</quad4>
			<quad4 id="18">1517,1518,1919,1918</quad4>
			<quad4 id="19">1518,1519,1920,1919</quad4>
			<quad4 id="20">1519,1520,1921,1920</quad4>
<!-- ... 4 like lines cut -->
		</Surface>
		<Surface name="SecondarySurface01">
			<quad4 id="1">1121,1087,1088,1122</quad4>
			<quad4 id="2">1087,1053,1054,1088</quad4>
			<quad4 id="3">1053,1019,1020,1054</quad4>
			<quad4 id="4">1019,985,986,1020</quad4>
			<quad4 id="5">985,951,952,986</quad4>
			<quad4 id="6">951,917,918,952</quad4>
			<quad4 id="7">917,883,884,918</quad4>
			<quad4 id="8">883,849,850,884</quad4>
			<quad4 id="9">849,815,816,850</quad4>
			<quad4 id="10">815,781,782,816</quad4>
			<quad4 id="11">781,747,748,782</quad4>
			<quad4 id="12">747,713,714,748</quad4>
			<quad4 id="13">713,679,680,714</quad4>
			<quad4 id="14">679,645,646,680</quad4>
			<quad4 id="15">645,611,612,646</quad4>
			<quad4 id="16">611,577,578,612</quad4>
			<quad4 id="17">577,543,544,578</quad4>
			<quad4 id="18">543,509,510,544</quad4>
			<quad4 id="19">509,475,476,510</quad4>
			<quad4 id="20">475,441,442,476</quad4>
<!-- ... 12 like lines cut -->
		</Surface>
		<ElementSet name="unnamed_set01">
			1
		</ElementSet>
		<SurfacePair name="BiphasicContact01">
			<primary>PrimarySurface01</primary>
			<secondary>SecondarySurface01</secondary>
		</SurfacePair>
	</Mesh>
	<MeshDomains>
		<SolidDomain name="Part3" mat="Biphasic material"/>
		<SolidDomain name="Part3(2)" mat="Biphasic material"/>
	</MeshDomains>
	<Boundary>
		<bc name="FixedDisplacement01" node_set="FixedDisplacement01" type="zero displacement">
			<x_dof>0</x_dof>
			<y_dof>0</y_dof>
			<z_dof>1</z_dof>
		</bc>
		<bc name="FixedDisplacement02" node_set="FixedDisplacement02" type="zero displacement">
			<x_dof>1</x_dof>
			<y_dof>0</y_dof>
			<z_dof>0</z_dof>
		</bc>
		<bc name="FixedDisplacement03" node_set="FixedDisplacement03" type="zero displacement">
			<x_dof>0</x_dof>
			<y_dof>1</y_dof>
			<z_dof>0</z_dof>
		</bc>
		<bc name="FixedFluidPressure01" node_set="FixedFluidPressure01" type="zero fluid pressure"/>
		<bc name="PrescribedBC11" node_set="PrescribedBC11" type="prescribed displacement">
			<dof>y</dof>
			<value lc="2">1</value>
			<relative>0</relative>
		</bc>
	</Boundary>
	<Contact>
		<contact name="BiphasicContact01" surface_pair="BiphasicContact01" type="sliding-biphasic">
			<laugon>AUGLAG</laugon>
			<tolerance>0.2</tolerance>
			<gaptol>0</gaptol>
			<ptol>0</ptol>
			<penalty>1</penalty>
			<auto_penalty>1</auto_penalty>
			<update_penalty>0</update_penalty>
			<two_pass>1</two_pass>
			<knmult>0</knmult>
			<search_tol>0.01</search_tol>
			<pressure_penalty>1</pressure_penalty>
			<symmetric_stiffness>0</symmetric_stiffness>
			<search_radius>1</search_radius>
			<seg_up>0</seg_up>
			<minaug>0</minaug>
			<maxaug>10</maxaug>
			<node_reloc>0</node_reloc>
			<fric_coeff>0</fric_coeff>
			<contact_frac>0</contact_frac>
			<smooth_aug>0</smooth_aug>
			<smooth_fls>0</smooth_fls>
			<flip_primary>0</flip_primary>
			<flip_secondary>0</flip_secondary>
			<shell_bottom_primary>0</shell_bottom_primary>
			<shell_bottom_secondary>0</shell_bottom_secondary>
		</contact>
	</Contact>
	<LoadData>
		<load_controller id="1" name="LC1" type="loadcurve">
			<interpolate>STEP</interpolate>
			<extend>CONSTANT</extend>
			<points>
				<pt>0,0</pt>
				<pt>20,1</pt>
				<pt>1000,100</pt>
			</points>
		</load_controller>
		<load_controller id="2" name="LC2" type="loadcurve">
			<interpolate>SMOOTH</interpolate>
			<extend>CONSTANT</extend>
			<points>
				<pt>0,0</pt>
				<pt>10,-0.5</pt>
			</points>
		</load_controller>
	</LoadData>
	<Output>
		<plotfile type="febio">
			<var type="contact gap"/>
			<var type="contact pressure"/>
			<var type="displacement"/>
			<var type="relative volume"/>
			<var type="stress"/>
			<var type="effective fluid pressure"/>
			<var type="fluid flux"/>
		</plotfile>
	</Output>
</febio_spec>
