<?xml version="1.0" encoding="ISO-8859-1"?>
<!--
3D axisymmetric analysis of cylindrical plug, modeled as wedge
with symmetry plane, loaded under displacement control

The solid deformation and fluid pressure exhibit axisymmetry.
-->
<febio_spec version="4.0">
	<Module type="biphasic"/>
	<Control>
		<analysis>TRANSIENT</analysis>
		<time_steps>10</time_steps>
		<step_size>0.1</step_size>
		<plot_zero_state>0</plot_zero_state>
		<plot_range>0,-1</plot_range>
		<plot_level>PLOT_MAJOR_ITRS</plot_level>
		<output_level>OUTPUT_MAJOR_ITRS</output_level>
		<plot_stride>1</plot_stride>
		<adaptor_re_solve>1</adaptor_re_solve>
		<time_stepper type="default">
			<max_retries>5</max_retries>
			<opt_iter>10</opt_iter>
			<dtmin>0.01</dtmin>
			<dtmax>0.1</dtmax>
			<aggressiveness>0</aggressiveness>
			<cutback>0.5</cutback>
			<dtforce>0</dtforce>
		</time_stepper>
		<solver type="biphasic">
			<symmetric_stiffness>non-symmetric</symmetric_stiffness>
			<equation_scheme>staggered</equation_scheme>
			<equation_order>default</equation_order>
			<optimize_bw>0</optimize_bw>
			<lstol>0.9</lstol>
			<lsmin>0.01</lsmin>
			<lsiter>5</lsiter>
			<max_refs>15</max_refs>
			<check_zero_diagonal>0</check_zero_diagonal>
			<zero_diagonal_tol>0</zero_diagonal_tol>
			<force_partition>0</force_partition>
			<reform_each_time_step>1</reform_each_time_step>
			<reform_augment>0</reform_augment>
			<diverge_reform>1</diverge_reform>
			<min_residual>1e-20</min_residual>
			<max_residual>0</max_residual>
			<dtol>0.001</dtol>
			<etol>0.01</etol>
			<rtol>0</rtol>
			<rhoi>-2</rhoi>
			<alpha>1</alpha>
			<beta>0.25</beta>
			<gamma>0.5</gamma>
			<logSolve>0</logSolve>
			<arc_length>0</arc_length>
			<arc_length_scale>0</arc_length_scale>
			<ptol>0.01</ptol>
			<mixed_formulation>0</mixed_formulation>
			<qn_method type="Broyden">
				<max_ups>0</max_ups>
				<max_buffer_size>0</max_buffer_size>
				<cycle_buffer>1</cycle_buffer>
				<cmax>100000</cmax>
			</qn_method>
		</solver>
	</Control>
	<Globals>
		<Constants>
			<T>0</T>
			<R>0</R>
			<Fc>0</Fc>
		</Constants>
	</Globals>
	<Material>
		<material id="1" name="Biphasic solid" type="biphasic">
			<phi0>0</phi0>
			<fluid_density>1</fluid_density>
			<tau>0</tau>
			<solid type="neo-Hookean">
				<density>1</density>
				<E>1</E>
				<v>0</v>
			</solid>
			<permeability type="perm-const-iso">
				<perm>0.001</perm>
			</permeability>
		</material>
		<material id="2" name="Biphasic shell" type="biphasic">
			<phi0>0</phi0>
			<fluid_density>1</fluid_density>
			<tau>0</tau>
			<solid type="neo-Hookean">
				<density>1</density>
				<E>1</E>
				<v>0</v>
			</solid>
			<permeability type="perm-const-iso">
				<perm>0.001</perm>
			</permeability>
		</material>
	</Material>
	<Mesh>
		<Nodes name="Object01">
			<node id="1">1,0,0</node>
			<node id="2">0.99862953,0.052335955,0</node>
			<node id="3">1,0,0.0625</node>
			<node id="4">0.99862953,0.052335955,0.0625</node>
			<node id="5">1,0,0.125</node>
			<node id="6">0.99862953,0.052335955,0.125</node>
			<node id="7">1,0,0.1875</node>
			<node id="8">0.99862953,0.052335955,0.1875</node>
			<node id="9">1,0,0.25</node>
			<node id="10">0.99862953,0.052335955,0.25</node>
			<node id="11">1,0,0.3125</node>
			<node id="12">0.99862953,0.052335955,0.3125</node>
			<node id="13">1,0,0.375</node>
			<node id="14">0.99862953,0.052335955,0.375</node>
			<node id="15">1,0,0.4375</node>
			<node id="16">0.99862953,0.052335955,0.4375</node>
			<node id="17">1,0,0.5</node>
			<node id="18">0.99862953,0.052335955,0.5</node>
			<node id="19">1,0,0.5625</node>
			<node id="20">0.99862953,0.052335955,0.5625</node>
<!-- ... 541 like lines cut -->
		</Nodes>
		<Elements type="quad4" name="Part2">
			<elem id="1">1,2,4,3</elem>
			<elem id="2">3,4,6,5</elem>
			<elem id="3">5,6,8,7</elem>
			<elem id="4">7,8,10,9</elem>
			<elem id="5">9,10,12,11</elem>
			<elem id="6">11,12,14,13</elem>
			<elem id="7">13,14,16,15</elem>
			<elem id="8">15,16,18,17</elem>
			<elem id="9">17,18,20,19</elem>
			<elem id="10">19,20,22,21</elem>
			<elem id="11">21,22,24,23</elem>
			<elem id="12">23,24,26,25</elem>
			<elem id="13">25,26,28,27</elem>
			<elem id="14">27,28,30,29</elem>
			<elem id="15">29,30,32,31</elem>
			<elem id="16">31,32,34,33</elem>
		</Elements>
		<Elements type="penta6" name="Part1">
			<elem id="17">35,36,37,66,67,68</elem>
			<elem id="18">66,67,68,97,98,99</elem>
			<elem id="19">97,98,99,128,129,130</elem>
			<elem id="20">128,129,130,159,160,161</elem>
			<elem id="21">159,160,161,190,191,192</elem>
			<elem id="22">190,191,192,221,222,223</elem>
			<elem id="23">221,222,223,252,253,254</elem>
			<elem id="24">252,253,254,283,284,285</elem>
			<elem id="25">283,284,285,314,315,316</elem>
			<elem id="26">314,315,316,345,346,347</elem>
			<elem id="27">345,346,347,376,377,378</elem>
			<elem id="28">376,377,378,407,408,409</elem>
			<elem id="29">407,408,409,438,439,440</elem>
			<elem id="30">438,439,440,469,470,471</elem>
			<elem id="31">469,470,471,500,501,502</elem>
			<elem id="32">500,501,502,531,532,533</elem>
		</Elements>
		<Elements type="hex8" name="Part1__2">
			<elem id="33">36,38,39,37,67,69,70,68</elem>
			<elem id="34">38,40,41,39,69,71,72,70</elem>
			<elem id="35">40,42,43,41,71,73,74,72</elem>
			<elem id="36">42,44,45,43,73,75,76,74</elem>
			<elem id="37">44,46,47,45,75,77,78,76</elem>
			<elem id="38">46,48,49,47,77,79,80,78</elem>
			<elem id="39">48,50,51,49,79,81,82,80</elem>
			<elem id="40">50,52,53,51,81,83,84,82</elem>
			<elem id="41">52,54,55,53,83,85,86,84</elem>
			<elem id="42">54,56,57,55,85,87,88,86</elem>
			<elem id="43">56,58,59,57,87,89,90,88</elem>
			<elem id="44">58,60,61,59,89,91,92,90</elem>
			<elem id="45">60,62,63,61,91,93,94,92</elem>
			<elem id="46">62,64,65,63,93,95,96,94</elem>
			<elem id="47">64,1,2,65,95,3,4,96</elem>
			<elem id="48">67,69,70,68,98,100,101,99</elem>
			<elem id="49">69,71,72,70,100,102,103,101</elem>
			<elem id="50">71,73,74,72,102,104,105,103</elem>
			<elem id="51">73,75,76,74,104,106,107,105</elem>
			<elem id="52">75,77,78,76,106,108,109,107</elem>
<!-- ... 220 like lines cut -->
		</Elements>
		<NodeSet name="FixedDisplacement04">
			1, 3, 5, 7, 9, 11, 13, 15,
			17, 19, 21, 23, 25, 27, 29, 31,
			33, 35, 36, 38, 40, 42, 44, 46,
			48, 50, 52, 54, 56, 58, 60, 62,
			64, 66, 67, 69, 71, 73, 75, 77,
			79, 81, 83, 85, 87, 89, 91, 93,
			95, 97, 98, 100, 102, 104, 106, 108,
			110, 112, 114, 116, 118, 120, 122, 124,
			126, 128, 129, 131, 133, 135, 137, 139,
			141, 143, 145, 147, 149, 151, 153, 155,
			157, 159, 160, 162, 164, 166, 168, 170,
			172, 174, 176, 178, 180, 182, 184, 186,
			188, 190, 191, 193, 195, 197, 199, 201,
			203, 205, 207, 209, 211, 213, 215, 217,
			219, 221, 222, 224, 226, 228, 230, 232,
			234, 236, 238, 240, 242, 244, 246, 248,
			250, 252, 253, 255, 257, 259, 261, 263,
			265, 267, 269, 271, 273, 275, 277, 279,
			281, 283, 284, 286, 288, 290, 292, 294,
			296, 298, 300, 302, 304, 306, 308, 310,
<!-- ... 17 like lines cut -->
		</NodeSet>
		<NodeSet name="FixedDisplacement05">
			1, 2, 35, 36, 37, 38, 39, 40,
			41, 42, 43, 44, 45, 46, 47, 48,
			49, 50, 51, 52, 53, 54, 55, 56,
			57, 58, 59, 60, 61, 62, 63, 64,
			65
		</NodeSet>
		<NodeSet name="FixedDisplacement06">
			35, 66, 97, 128, 159, 190, 221, 252,
			283, 314, 345, 376, 407, 438, 469, 500,
			531
		</NodeSet>
		<NodeSet name="FixedFluidPressure01">
			1, 2, 3, 4, 5, 6, 7, 8,
			9, 10, 11, 12, 13, 14, 15, 16,
			17, 18, 19, 20, 21, 22, 23, 24,
			25, 26, 27, 28, 29, 30, 31, 32,
			33, 34
		</NodeSet>
		<NodeSet name="PrescribedDisplacement01">
			33, 34, 531, 532, 533, 534, 535, 536,
			537, 538, 539, 540, 541, 542, 543, 544,
			545, 546, 547, 548, 549, 550, 551, 552,
			553, 554, 555, 556, 557, 558, 559, 560,
			561
		</NodeSet>
		<Surface name="SymmetryPlane01">
			<quad4 id="1">35,66,68,37</quad4>
			<quad4 id="2">39,37,68,70</quad4>
			<quad4 id="3">41,39,70,72</quad4>
			<quad4 id="4">43,41,72,74</quad4>
			<quad4 id="5">45,43,74,76</quad4>
			<quad4 id="6">47,45,76,78</quad4>
			<quad4 id="7">49,47,78,80</quad4>
			<quad4 id="8">51,49,80,82</quad4>
			<quad4 id="9">53,51,82,84</quad4>
			<quad4 id="10">55,53,84,86</quad4>
			<quad4 id="11">57,55,86,88</quad4>
			<quad4 id="12">59,57,88,90</quad4>
			<quad4 id="13">61,59,90,92</quad4>
			<quad4 id="14">63,61,92,94</quad4>
			<quad4 id="15">65,63,94,96</quad4>
			<quad4 id="16">2,65,96,4</quad4>
			<quad4 id="17">66,97,99,68</quad4>
			<quad4 id="18">70,68,99,101</quad4>
			<quad4 id="19">72,70,101,103</quad4>
			<quad4 id="20">74,72,103,105</quad4>
<!-- ... 236 like lines cut -->
		</Surface>
	</Mesh>
	<MeshDomains>
		<ShellDomain name="Part2" mat="Biphasic shell">
			<shell_thickness>0</shell_thickness>
		</ShellDomain>
		<SolidDomain name="Part1" mat="Biphasic solid"/>
		<SolidDomain name="Part1__2" mat="Biphasic solid"/>
	</MeshDomains>
	<MeshData>
		<ElementData type="shell thickness" elem_set="Part2">
			<e lid="1">0.01,0.01,0.01,0.01</e>
			<e lid="2">0.01,0.01,0.01,0.01</e>
			<e lid="3">0.01,0.01,0.01,0.01</e>
			<e lid="4">0.01,0.01,0.01,0.01</e>
			<e lid="5">0.01,0.01,0.01,0.01</e>
			<e lid="6">0.01,0.01,0.01,0.01</e>
			<e lid="7">0.01,0.01,0.01,0.01</e>
			<e lid="8">0.01,0.01,0.01,0.01</e>
			<e lid="9">0.01,0.01,0.01,0.01</e>
			<e lid="10">0.01,0.01,0.01,0.01</e>
			<e lid="11">0.01,0.01,0.01,0.01</e>
			<e lid="12">0.01,0.01,0.01,0.01</e>
			<e lid="13">0.01,0.01,0.01,0.01</e>
			<e lid="14">0.01,0.01,0.01,0.01</e>
			<e lid="15">0.01,0.01,0.01,0.01</e>
			<e lid="16">0.01,0.01,0.01,0.01</e>
		</ElementData>
	</MeshData>
	<Boundary>
		<bc name="FixedDisplacement01" node_set="FixedDisplacement04" type="zero displacement">
			<x_dof>0</x_dof>
			<y_dof>1</y_dof>
			<z_dof>0</z_dof>
		</bc>
		<bc name="FixedDisplacement02" node_set="FixedDisplacement05" type="zero displacement">
			<x_dof>1</x_dof>
			<y_dof>1</y_dof>
			<z_dof>1</z_dof>
		</bc>
		<bc name="FixedDisplacement03" node_set="FixedDisplacement06" type="zero displacement">
			<x_dof>1</x_dof>
			<y_dof>1</y_dof>
			<z_dof>0</z_dof>
		</bc>
		<bc name="FixedFluidPressure01" node_set="FixedFluidPressure01" type="zero fluid pressure"/>
		<bc name="PrescribedDisplacement01" node_set="PrescribedDisplacement01" type="prescribed displacement">
			<dof>z</dof>
			<value lc="1">-0.25</value>
			<relative>0</relative>
		</bc>
	</Boundary>
	<Constraints>
		<constraint name="SymmetryPlane01" surface="SymmetryPlane01" type="symmetry plane">
			<laugon>LAGMULT</laugon>
			<tol>1e-06</tol>
			<penalty>1000000</penalty>
			<rhs>0</rhs>
			<minaug>0</minaug>
			<maxaug>50</maxaug>
		</constraint>
	</Constraints>
	<LoadData>
		<load_controller id="1" name="LC1" type="loadcurve">
			<interpolate>SMOOTH</interpolate>
			<extend>CONSTANT</extend>
			<points>
				<pt>0,0</pt>
				<pt>1,1</pt>
			</points>
		</load_controller>
	</LoadData>
	<Output>
		<plotfile type="febio">
			<var type="displacement"/>
			<var type="relative volume"/>
			<var type="stress"/>
			<var type="effective fluid pressure"/>
			<var type="fluid pressure"/>
			<var type="fluid flux"/>
		</plotfile>
	</Output>
</febio_spec>
