<?xml version="1.0" encoding="ISO-8859-1"?>
<!--
A stiff block with prescribed displacement of 0.14 units in the zdirection from time t=0
to t=1 and then 0.8 units in the xdirection from time t=1 to t=2 compresses then slides
across a larger softer block.

Does not converge with auto="on" in the contact penalty.  Turning the auto time stepper off leads
to better convergence and contact penetration using augmented Lagrangian.  Not using augmented
Lagrangian creates too much penetration.
-->
<febio_spec version="4.0">
	<Module type="solid"/>
	<Control>
		<analysis>STATIC</analysis>
		<time_steps>40</time_steps>
		<step_size>0.05</step_size>
		<plot_zero_state>0</plot_zero_state>
		<plot_range>0,-1</plot_range>
		<plot_level>PLOT_MAJOR_ITRS</plot_level>
		<output_level>OUTPUT_MAJOR_ITRS</output_level>
		<plot_stride>1</plot_stride>
		<adaptor_re_solve>1</adaptor_re_solve>
		<solver type="solid">
			<symmetric_stiffness>symmetric</symmetric_stiffness>
			<equation_scheme>staggered</equation_scheme>
			<equation_order>default</equation_order>
			<optimize_bw>0</optimize_bw>
			<lstol>0.9</lstol>
			<lsmin>0.01</lsmin>
			<lsiter>5</lsiter>
			<max_refs>15</max_refs>
			<check_zero_diagonal>0</check_zero_diagonal>
			<zero_diagonal_tol>0</zero_diagonal_tol>
			<force_partition>0</force_partition>
			<reform_each_time_step>1</reform_each_time_step>
			<reform_augment>0</reform_augment>
			<diverge_reform>1</diverge_reform>
			<min_residual>1e-20</min_residual>
			<max_residual>0</max_residual>
			<dtol>0.001</dtol>
			<etol>0.01</etol>
			<rtol>1e+10</rtol>
			<rhoi>-2</rhoi>
			<alpha>1</alpha>
			<beta>0.25</beta>
			<gamma>0.5</gamma>
			<logSolve>0</logSolve>
			<arc_length>0</arc_length>
			<arc_length_scale>0</arc_length_scale>
			<qn_method type="BFGS">
				<max_ups>10</max_ups>
				<max_buffer_size>0</max_buffer_size>
				<cycle_buffer>1</cycle_buffer>
				<cmax>100000</cmax>
			</qn_method>
		</solver>
	</Control>
	<Globals>
		<Constants>
			<T>0</T>
			<R>0</R>
			<Fc>0</Fc>
		</Constants>
	</Globals>
	<Material>
		<material id="1" name="top block (Mooney-Rivlin)" type="Mooney-Rivlin">
			<density>1</density>
			<k>133333</k>
			<pressure_model>default</pressure_model>
			<c1>100000</c1>
			<c2>0</c2>
		</material>
		<material id="2" name="bottom block (Mooney-Rivlin)" type="Mooney-Rivlin">
			<density>1</density>
			<k>1.33333</k>
			<pressure_model>default</pressure_model>
			<c1>1</c1>
			<c2>0</c2>
		</material>
	</Material>
	<Mesh>
		<Nodes name="Object01">
			<node id="1">-0.5,-0.5,0</node>
			<node id="2">-0.5,-0.5,0.1</node>
			<node id="3">-0.5,-0.5,0.2</node>
			<node id="4">-0.5,-0.5,0.30000001</node>
			<node id="5">-0.5,-0.5,0.40000001</node>
			<node id="6">-0.5,-0.5,0.5</node>
			<node id="7">-0.5,-0.40000001,0</node>
			<node id="8">-0.5,-0.40000001,0.1</node>
			<node id="9">-0.5,-0.40000001,0.2</node>
			<node id="10">-0.5,-0.40000001,0.30000001</node>
			<node id="11">-0.5,-0.40000001,0.40000001</node>
			<node id="12">-0.5,-0.40000001,0.5</node>
			<node id="13">-0.5,-0.30000001,0</node>
			<node id="14">-0.5,-0.30000001,0.1</node>
			<node id="15">-0.5,-0.30000001,0.2</node>
			<node id="16">-0.5,-0.30000001,0.30000001</node>
			<node id="17">-0.5,-0.30000001,0.40000001</node>
			<node id="18">-0.5,-0.30000001,0.5</node>
			<node id="19">-0.5,-0.2,0</node>
			<node id="20">-0.5,-0.2,0.1</node>
<!-- ... 922 like lines cut -->
		</Nodes>
		<Elements type="hex8" name="Part5">
			<elem id="1">727,763,769,733,728,764,770,734</elem>
			<elem id="2">728,764,770,734,729,765,771,735</elem>
			<elem id="3">729,765,771,735,730,766,772,736</elem>
			<elem id="4">730,766,772,736,731,767,773,737</elem>
			<elem id="5">731,767,773,737,732,768,774,738</elem>
			<elem id="6">733,769,775,739,734,770,776,740</elem>
			<elem id="7">734,770,776,740,735,771,777,741</elem>
			<elem id="8">735,771,777,741,736,772,778,742</elem>
			<elem id="9">736,772,778,742,737,773,779,743</elem>
			<elem id="10">737,773,779,743,738,774,780,744</elem>
			<elem id="11">739,775,781,745,740,776,782,746</elem>
			<elem id="12">740,776,782,746,741,777,783,747</elem>
			<elem id="13">741,777,783,747,742,778,784,748</elem>
			<elem id="14">742,778,784,748,743,779,785,749</elem>
			<elem id="15">743,779,785,749,744,780,786,750</elem>
			<elem id="16">745,781,787,751,746,782,788,752</elem>
			<elem id="17">746,782,788,752,747,783,789,753</elem>
			<elem id="18">747,783,789,753,748,784,790,754</elem>
			<elem id="19">748,784,790,754,749,785,791,755</elem>
			<elem id="20">749,785,791,755,750,786,792,756</elem>
<!-- ... 105 like lines cut -->
		</Elements>
		<Elements type="hex8" name="Part6">
			<elem id="126">1,67,73,7,2,68,74,8</elem>
			<elem id="127">2,68,74,8,3,69,75,9</elem>
			<elem id="128">3,69,75,9,4,70,76,10</elem>
			<elem id="129">4,70,76,10,5,71,77,11</elem>
			<elem id="130">5,71,77,11,6,72,78,12</elem>
			<elem id="131">7,73,79,13,8,74,80,14</elem>
			<elem id="132">8,74,80,14,9,75,81,15</elem>
			<elem id="133">9,75,81,15,10,76,82,16</elem>
			<elem id="134">10,76,82,16,11,77,83,17</elem>
			<elem id="135">11,77,83,17,12,78,84,18</elem>
			<elem id="136">13,79,85,19,14,80,86,20</elem>
			<elem id="137">14,80,86,20,15,81,87,21</elem>
			<elem id="138">15,81,87,21,16,82,88,22</elem>
			<elem id="139">16,82,88,22,17,83,89,23</elem>
			<elem id="140">17,83,89,23,18,84,90,24</elem>
			<elem id="141">19,85,91,25,20,86,92,26</elem>
			<elem id="142">20,86,92,26,21,87,93,27</elem>
			<elem id="143">21,87,93,27,22,88,94,28</elem>
			<elem id="144">22,88,94,28,23,89,95,29</elem>
			<elem id="145">23,89,95,29,24,90,96,30</elem>
<!-- ... 480 like lines cut -->
		</Elements>
		<NodeSet name="FixedDisplacement01">
			1, 7, 13, 19, 25, 31, 37, 43,
			49, 55, 61, 67, 73, 79, 85, 91,
			97, 103, 109, 115, 121, 127, 133, 139,
			145, 151, 157, 163, 169, 175, 181, 187,
			193, 199, 205, 211, 217, 223, 229, 235,
			241, 247, 253, 259, 265, 271, 277, 283,
			289, 295, 301, 307, 313, 319, 325, 331,
			337, 343, 349, 355, 361, 367, 373, 379,
			385, 391, 397, 403, 409, 415, 421, 427,
			433, 439, 445, 451, 457, 463, 469, 475,
			481, 487, 493, 499, 505, 511, 517, 523,
			529, 535, 541, 547, 553, 559, 565, 571,
			577, 583, 589, 595, 601, 607, 613, 619,
			625, 631, 637, 643, 649, 655, 661, 667,
			673, 679, 685, 691, 697, 703, 709, 715,
			721
		</NodeSet>
		<NodeSet name="FixedDisplacement02">
			1, 6, 7, 12, 13, 18, 19, 24,
			25, 30, 31, 36, 37, 42, 43, 48,
			49, 54, 55, 60, 61, 66, 67, 72,
			73, 78, 79, 84, 85, 90, 91, 96,
			97, 102, 103, 108, 109, 114, 115, 120,
			121, 126, 127, 132, 133, 138, 139, 144,
			145, 150, 151, 156, 157, 162, 163, 168,
			169, 174, 175, 180, 181, 186, 187, 192,
			193, 198, 199, 204, 205, 210, 211, 216,
			217, 222, 223, 228, 229, 234, 235, 240,
			241, 246, 247, 252, 253, 258, 259, 264,
			265, 270, 271, 276, 277, 282, 283, 288,
			289, 294, 295, 300, 301, 306, 307, 312,
			313, 318, 319, 324, 325, 330, 331, 336,
			337, 342, 343, 348, 349, 354, 355, 360,
			361, 366, 367, 372, 373, 378, 379, 384,
			385, 390, 391, 396, 397, 402, 403, 408,
			409, 414, 415, 420, 421, 426, 427, 432,
			433, 438, 439, 444, 445, 450, 451, 456,
			457, 462, 463, 468, 469, 474, 475, 480,
<!-- ... 20 like lines cut -->
		</NodeSet>
		<NodeSet name="FixedDisplacement03">
			1, 6, 7, 12, 13, 18, 19, 24,
			25, 30, 31, 36, 37, 42, 43, 48,
			49, 54, 55, 60, 61, 66, 67, 72,
			73, 78, 79, 84, 85, 90, 91, 96,
			97, 102, 103, 108, 109, 114, 115, 120,
			121, 126, 127, 132, 133, 138, 139, 144,
			145, 150, 151, 156, 157, 162, 163, 168,
			169, 174, 175, 180, 181, 186, 187, 192,
			193, 198, 199, 204, 205, 210, 211, 216,
			217, 222, 223, 228, 229, 234, 235, 240,
			241, 246, 247, 252, 253, 258, 259, 264,
			265, 270, 271, 276, 277, 282, 283, 288,
			289, 294, 295, 300, 301, 306, 307, 312,
			313, 318, 319, 324, 325, 330, 331, 336,
			337, 342, 343, 348, 349, 354, 355, 360,
			361, 366, 367, 372, 373, 378, 379, 384,
			385, 390, 391, 396, 397, 402, 403, 408,
			409, 414, 415, 420, 421, 426, 427, 432,
			433, 438, 439, 444, 445, 450, 451, 456,
			457, 462, 463, 468, 469, 474, 475, 480,
<!-- ... 11 like lines cut -->
		</NodeSet>
		<NodeSet name="PrescribedBC38">
			732, 738, 744, 750, 756, 762, 768, 774,
			780, 786, 792, 798, 804, 810, 816, 822,
			828, 834, 840, 846, 852, 858, 864, 870,
			876, 882, 888, 894, 900, 906, 912, 918,
			924, 930, 936, 942
		</NodeSet>
		<NodeSet name="PrescribedBC39">
			732, 738, 744, 750, 756, 762, 768, 774,
			780, 786, 792, 798, 804, 810, 816, 822,
			828, 834, 840, 846, 852, 858, 864, 870,
			876, 882, 888, 894, 900, 906, 912, 918,
			924, 930, 936, 942
		</NodeSet>
		<Surface name="PrimarySurface01">
			<quad4 id="1">733,769,763,727</quad4>
			<quad4 id="2">739,775,769,733</quad4>
			<quad4 id="3">745,781,775,739</quad4>
			<quad4 id="4">751,787,781,745</quad4>
			<quad4 id="5">757,793,787,751</quad4>
			<quad4 id="6">769,805,799,763</quad4>
			<quad4 id="7">775,811,805,769</quad4>
			<quad4 id="8">781,817,811,775</quad4>
			<quad4 id="9">787,823,817,781</quad4>
			<quad4 id="10">793,829,823,787</quad4>
			<quad4 id="11">805,841,835,799</quad4>
			<quad4 id="12">811,847,841,805</quad4>
			<quad4 id="13">817,853,847,811</quad4>
			<quad4 id="14">823,859,853,817</quad4>
			<quad4 id="15">829,865,859,823</quad4>
			<quad4 id="16">841,877,871,835</quad4>
			<quad4 id="17">847,883,877,841</quad4>
			<quad4 id="18">853,889,883,847</quad4>
			<quad4 id="19">859,895,889,853</quad4>
			<quad4 id="20">865,901,895,859</quad4>
<!-- ... 5 like lines cut -->
		</Surface>
		<Surface name="SecondarySurface01">
			<quad4 id="1">6,72,78,12</quad4>
			<quad4 id="2">12,78,84,18</quad4>
			<quad4 id="3">18,84,90,24</quad4>
			<quad4 id="4">24,90,96,30</quad4>
			<quad4 id="5">30,96,102,36</quad4>
			<quad4 id="6">36,102,108,42</quad4>
			<quad4 id="7">42,108,114,48</quad4>
			<quad4 id="8">48,114,120,54</quad4>
			<quad4 id="9">54,120,126,60</quad4>
			<quad4 id="10">60,126,132,66</quad4>
			<quad4 id="11">72,138,144,78</quad4>
			<quad4 id="12">78,144,150,84</quad4>
			<quad4 id="13">84,150,156,90</quad4>
			<quad4 id="14">90,156,162,96</quad4>
			<quad4 id="15">96,162,168,102</quad4>
			<quad4 id="16">102,168,174,108</quad4>
			<quad4 id="17">108,174,180,114</quad4>
			<quad4 id="18">114,180,186,120</quad4>
			<quad4 id="19">120,186,192,126</quad4>
			<quad4 id="20">126,192,198,132</quad4>
<!-- ... 80 like lines cut -->
		</Surface>
		<ElementSet name="unnamed_set01">
			405
		</ElementSet>
		<SurfacePair name="SlidingInterface01">
			<primary>PrimarySurface01</primary>
			<secondary>SecondarySurface01</secondary>
		</SurfacePair>
	</Mesh>
	<MeshDomains>
		<SolidDomain name="Part5" mat="top block (Mooney-Rivlin)"/>
		<SolidDomain name="Part6" mat="bottom block (Mooney-Rivlin)"/>
	</MeshDomains>
	<Boundary>
		<bc name="FixedDisplacement01" node_set="FixedDisplacement01" type="zero displacement">
			<x_dof>0</x_dof>
			<y_dof>0</y_dof>
			<z_dof>1</z_dof>
		</bc>
		<bc name="FixedDisplacement02" node_set="FixedDisplacement02" type="zero displacement">
			<x_dof>0</x_dof>
			<y_dof>1</y_dof>
			<z_dof>0</z_dof>
		</bc>
		<bc name="FixedDisplacement03" node_set="FixedDisplacement03" type="zero displacement">
			<x_dof>1</x_dof>
			<y_dof>0</y_dof>
			<z_dof>0</z_dof>
		</bc>
		<bc name="PrescribedBC38" node_set="PrescribedBC38" type="prescribed displacement">
			<dof>x</dof>
			<value lc="1">1</value>
			<relative>0</relative>
		</bc>
		<bc name="PrescribedBC39" node_set="PrescribedBC39" type="prescribed displacement">
			<dof>z</dof>
			<value lc="2">1</value>
			<relative>0</relative>
		</bc>
	</Boundary>
	<Contact>
		<contact name="SlidingInterface01" surface_pair="SlidingInterface01" type="sliding-node-on-facet">
			<laugon>AUGLAG</laugon>
			<tolerance>0.1</tolerance>
			<penalty>1000</penalty>
			<auto_penalty>0</auto_penalty>
			<two_pass>0</two_pass>
			<gaptol>0</gaptol>
			<fric_coeff>0</fric_coeff>
			<fric_penalty>0</fric_penalty>
			<minaug>0</minaug>
			<maxaug>10</maxaug>
			<search_tol>0.01</search_tol>
			<ktmult>0</ktmult>
			<knmult>1</knmult>
			<node_reloc>0</node_reloc>
			<seg_up>0</seg_up>
			<search_radius>0</search_radius>
			<update_penalty>0</update_penalty>
		</contact>
	</Contact>
	<LoadData>
		<load_controller id="1" name="LC1" type="loadcurve">
			<interpolate>LINEAR</interpolate>
			<extend>CONSTANT</extend>
			<points>
				<pt>0,0</pt>
				<pt>1,0</pt>
				<pt>2,-0.8</pt>
			</points>
		</load_controller>
		<load_controller id="2" name="LC2" type="loadcurve">
			<interpolate>LINEAR</interpolate>
			<extend>CONSTANT</extend>
			<points>
				<pt>0,0</pt>
				<pt>1,-0.14</pt>
				<pt>2,-0.14</pt>
			</points>
		</load_controller>
	</LoadData>
	<Output>
		<plotfile type="febio">
			<var type="contact gap"/>
			<var type="contact pressure"/>
			<var type="displacement"/>
			<var type="relative volume"/>
			<var type="stress"/>
		</plotfile>
	</Output>
</febio_spec>
