<?xml version="1.0" encoding="ISO-8859-1"?>
<!--
Block with prescribed displacement of 2.5 units in zdirection from time t=0 to t=1
sliding and compressing against inclined rigid body plane.
-->
<febio_spec version="4.0">
	<Module type="solid"/>
	<Control>
		<analysis>STATIC</analysis>
		<time_steps>10</time_steps>
		<step_size>0.1</step_size>
		<plot_zero_state>0</plot_zero_state>
		<plot_range>0,-1</plot_range>
		<plot_level>PLOT_MAJOR_ITRS</plot_level>
		<output_level>OUTPUT_MAJOR_ITRS</output_level>
		<plot_stride>1</plot_stride>
		<adaptor_re_solve>1</adaptor_re_solve>
		<time_stepper type="default">
			<max_retries>5</max_retries>
			<opt_iter>10</opt_iter>
			<dtmin>0.01</dtmin>
			<dtmax>0.1</dtmax>
			<aggressiveness>0</aggressiveness>
			<cutback>0.5</cutback>
			<dtforce>0</dtforce>
		</time_stepper>
		<solver type="solid">
			<symmetric_stiffness>symmetric</symmetric_stiffness>
			<equation_scheme>staggered</equation_scheme>
			<equation_order>default</equation_order>
			<optimize_bw>0</optimize_bw>
			<lstol>0.9</lstol>
			<lsmin>0.01</lsmin>
			<lsiter>5</lsiter>
			<max_refs>15</max_refs>
			<check_zero_diagonal>0</check_zero_diagonal>
			<zero_diagonal_tol>0</zero_diagonal_tol>
			<force_partition>0</force_partition>
			<reform_each_time_step>1</reform_each_time_step>
			<reform_augment>0</reform_augment>
			<diverge_reform>1</diverge_reform>
			<min_residual>1e-20</min_residual>
			<max_residual>0</max_residual>
			<dtol>0.001</dtol>
			<etol>0.01</etol>
			<rtol>0</rtol>
			<rhoi>-2</rhoi>
			<alpha>1</alpha>
			<beta>0.25</beta>
			<gamma>0.5</gamma>
			<logSolve>0</logSolve>
			<arc_length>0</arc_length>
			<arc_length_scale>0</arc_length_scale>
			<qn_method type="BFGS">
				<max_ups>10</max_ups>
				<max_buffer_size>0</max_buffer_size>
				<cycle_buffer>1</cycle_buffer>
				<cmax>100000</cmax>
			</qn_method>
		</solver>
	</Control>
	<Globals>
		<Constants>
			<T>298</T>
			<R>8.314e-06</R>
			<Fc>0</Fc>
		</Constants>
	</Globals>
	<Material>
		<material id="1" name="Material 4" type="neo-Hookean">
			<density>1</density>
			<E>1</E>
			<v>0</v>
		</material>
		<material id="2" name="Material 5" type="rigid body">
			<density>1</density>
			<E>1</E>
			<v>0</v>
		</material>
	</Material>
	<Mesh>
		<Nodes name="Object01">
			<node id="1">0,-0.5,0</node>
			<node id="2">0,-0.5,0.1</node>
			<node id="3">0,-0.5,0.2</node>
			<node id="4">0,-0.5,0.3</node>
			<node id="5">0,-0.5,0.4</node>
			<node id="6">0,-0.5,0.5</node>
			<node id="7">0,-0.5,0.6</node>
			<node id="8">0,-0.5,0.7</node>
			<node id="9">0,-0.5,0.8</node>
			<node id="10">0,-0.5,0.9</node>
			<node id="11">0,-0.5,1</node>
			<node id="12">0,-0.4,0</node>
			<node id="13">0,-0.4,0.1</node>
			<node id="14">0,-0.4,0.2</node>
			<node id="15">0,-0.4,0.3</node>
			<node id="16">0,-0.4,0.4</node>
			<node id="17">0,-0.4,0.5</node>
			<node id="18">0,-0.4,0.6</node>
			<node id="19">0,-0.4,0.7</node>
			<node id="20">0,-0.4,0.8</node>
<!-- ... 714 like lines cut -->
		</Nodes>
		<Elements type="hex8" name="Part10">
			<elem id="1">1,122,133,12,2,123,134,13</elem>
			<elem id="2">2,123,134,13,3,124,135,14</elem>
			<elem id="3">3,124,135,14,4,125,136,15</elem>
			<elem id="4">4,125,136,15,5,126,137,16</elem>
			<elem id="5">5,126,137,16,6,127,138,17</elem>
			<elem id="6">6,127,138,17,7,128,139,18</elem>
			<elem id="7">7,128,139,18,8,129,140,19</elem>
			<elem id="8">8,129,140,19,9,130,141,20</elem>
			<elem id="9">9,130,141,20,10,131,142,21</elem>
			<elem id="10">10,131,142,21,11,132,143,22</elem>
			<elem id="11">12,133,144,23,13,134,145,24</elem>
			<elem id="12">13,134,145,24,14,135,146,25</elem>
			<elem id="13">14,135,146,25,15,136,147,26</elem>
			<elem id="14">15,136,147,26,16,137,148,27</elem>
			<elem id="15">16,137,148,27,17,138,149,28</elem>
			<elem id="16">17,138,149,28,18,139,150,29</elem>
			<elem id="17">18,139,150,29,19,140,151,30</elem>
			<elem id="18">19,140,151,30,20,141,152,31</elem>
			<elem id="19">20,141,152,31,21,142,153,32</elem>
			<elem id="20">21,142,153,32,22,143,154,33</elem>
<!-- ... 480 like lines cut -->
		</Elements>
		<Elements type="hex8" name="Part11">
			<elem id="501">727,731,733,729,728,732,734,730</elem>
		</Elements>
		<NodeSet name="FixedDisplacement01">
			1, 2, 3, 4, 5, 6, 7, 8,
			9, 10, 11, 111, 112, 113, 114, 115,
			116, 117, 118, 119, 120, 121, 122, 123,
			124, 125, 126, 127, 128, 129, 130, 131,
			132, 232, 233, 234, 235, 236, 237, 238,
			239, 240, 241, 242, 243, 244, 245, 246,
			247, 248, 249, 250, 251, 252, 253, 353,
			354, 355, 356, 357, 358, 359, 360, 361,
			362, 363, 364, 365, 366, 367, 368, 369,
			370, 371, 372, 373, 374, 474, 475, 476,
			477, 478, 479, 480, 481, 482, 483, 484,
			485, 486, 487, 488, 489, 490, 491, 492,
			493, 494, 495, 595, 596, 597, 598, 599,
			600, 601, 602, 603, 604, 605, 606, 607,
			608, 609, 610, 611, 612, 613, 614, 615,
			616, 705, 716, 717, 718, 719, 720, 721,
			722, 723, 724, 725, 726
		</NodeSet>
		<NodeSet name="FixedDisplacement02">
			1, 2, 3, 4, 5, 6, 7, 8,
			9, 10, 11, 12, 13, 14, 15, 16,
			17, 18, 19, 20, 21, 22, 23, 24,
			25, 26, 27, 28, 29, 30, 31, 32,
			33, 34, 35, 36, 37, 38, 39, 40,
			41, 42, 43, 44, 45, 46, 47, 48,
			49, 50, 51, 52, 53, 54, 55, 56,
			57, 58, 59, 60, 61, 62, 63, 64,
			65, 66, 67, 68, 69, 70, 71, 72,
			73, 74, 75, 76, 77, 78, 79, 80,
			81, 82, 83, 84, 85, 86, 87, 88,
			89, 90, 91, 92, 93, 94, 95, 96,
			97, 98, 99, 100, 101, 102, 103, 104,
			105, 106, 107, 108, 109, 110, 111, 112,
			113, 114, 115, 116, 117, 118, 119, 120,
			121
		</NodeSet>
		<NodeSet name="PrescribedBC43">
			1, 12, 23, 34, 45, 56, 67, 78,
			89, 100, 111, 122, 133, 144, 155, 166,
			177, 188, 199, 210, 221, 232, 243, 254,
			265, 276, 287, 298, 309, 320, 331, 342,
			353, 364, 375, 386, 397, 408, 419, 430,
			441, 452, 463, 474, 485, 496, 507, 518,
			529, 540, 551, 562, 573, 584, 595, 606,
			617, 628, 639, 650, 661, 672, 683, 694,
			705, 716
		</NodeSet>
		<Surface name="PrimarySurface01">
			<quad4 id="1">606,617,618,607</quad4>
			<quad4 id="2">607,618,619,608</quad4>
			<quad4 id="3">608,619,620,609</quad4>
			<quad4 id="4">609,620,621,610</quad4>
			<quad4 id="5">610,621,622,611</quad4>
			<quad4 id="6">611,622,623,612</quad4>
			<quad4 id="7">612,623,624,613</quad4>
			<quad4 id="8">613,624,625,614</quad4>
			<quad4 id="9">614,625,626,615</quad4>
			<quad4 id="10">615,626,627,616</quad4>
			<quad4 id="11">617,628,629,618</quad4>
			<quad4 id="12">618,629,630,619</quad4>
			<quad4 id="13">619,630,631,620</quad4>
			<quad4 id="14">620,631,632,621</quad4>
			<quad4 id="15">621,632,633,622</quad4>
			<quad4 id="16">622,633,634,623</quad4>
			<quad4 id="17">623,634,635,624</quad4>
			<quad4 id="18">624,635,636,625</quad4>
			<quad4 id="19">625,636,637,626</quad4>
			<quad4 id="20">626,637,638,627</quad4>
<!-- ... 80 like lines cut -->
		</Surface>
		<Surface name="SecondarySurface01">
			<quad4 id="1">729,727,728,730</quad4>
		</Surface>
		<ElementSet name="unnamed_set01">
			1
		</ElementSet>
		<SurfacePair name="SlidingInterface01">
			<primary>PrimarySurface01</primary>
			<secondary>SecondarySurface01</secondary>
		</SurfacePair>
	</Mesh>
	<MeshDomains>
		<SolidDomain name="Part10" mat="Material 4"/>
		<SolidDomain name="Part11" mat="Material 5"/>
	</MeshDomains>
	<Boundary>
		<bc name="FixedDisplacement01" node_set="FixedDisplacement01" type="zero displacement">
			<x_dof>0</x_dof>
			<y_dof>1</y_dof>
			<z_dof>0</z_dof>
		</bc>
		<bc name="FixedDisplacement02" node_set="FixedDisplacement02" type="zero displacement">
			<x_dof>1</x_dof>
			<y_dof>0</y_dof>
			<z_dof>0</z_dof>
		</bc>
		<bc name="PrescribedBC43" node_set="PrescribedBC43" type="prescribed displacement">
			<dof>z</dof>
			<value lc="1">1</value>
			<relative>0</relative>
		</bc>
	</Boundary>
	<Rigid>
		<rigid_bc name="RigidFixed17" type="rigid_fixed">
			<rb>Material 5</rb>
			<Rx_dof>1</Rx_dof>
			<Ry_dof>1</Ry_dof>
			<Rz_dof>1</Rz_dof>
			<Ru_dof>1</Ru_dof>
			<Rv_dof>1</Rv_dof>
			<Rw_dof>1</Rw_dof>
		</rigid_bc>
	</Rigid>
	<Contact>
		<contact name="SlidingInterface01" surface_pair="SlidingInterface01" type="sliding-node-on-facet">
			<laugon>PENALTY</laugon>
			<tolerance>0.02</tolerance>
			<penalty lc="2">1</penalty>
			<auto_penalty>0</auto_penalty>
			<two_pass>0</two_pass>
			<gaptol>0</gaptol>
			<fric_coeff>0</fric_coeff>
			<fric_penalty>0</fric_penalty>
			<minaug>0</minaug>
			<maxaug>10</maxaug>
			<search_tol>0.01</search_tol>
			<ktmult>0</ktmult>
			<knmult>1</knmult>
			<node_reloc>0</node_reloc>
			<seg_up>0</seg_up>
			<search_radius>0</search_radius>
			<update_penalty>0</update_penalty>
		</contact>
	</Contact>
	<LoadData>
		<load_controller id="1" name="LC1" type="loadcurve">
			<interpolate>LINEAR</interpolate>
			<extend>CONSTANT</extend>
			<points>
				<pt>0,0</pt>
				<pt>1,2.5</pt>
			</points>
		</load_controller>
		<load_controller id="2" name="LC2" type="loadcurve">
			<interpolate>LINEAR</interpolate>
			<extend>CONSTANT</extend>
			<points>
				<pt>0,10</pt>
				<pt>0.8,150</pt>
				<pt>1,200</pt>
			</points>
		</load_controller>
	</LoadData>
	<Output>
		<plotfile type="febio">
			<var type="contact gap"/>
			<var type="contact pressure"/>
			<var type="displacement"/>
			<var type="relative volume"/>
			<var type="stress"/>
		</plotfile>
	</Output>
</febio_spec>
