<?xml version="1.0" encoding="ISO-8859-1"?>
<!--
Two cylindrical tubes at 90 degrees are compressed against each other.  The ends of
one tube are constrained in x,y,z and the ends of the other tube have a prescribed
displacement of 6.0 units in the xdirection.

This problem is similar to co13 except the ends of the moving tube are given a prescribed
displacement instead of being attached to a moving rigid body.
-->
<febio_spec version="4.0">
	<Module type="solid"/>
	<Control>
		<analysis>STATIC</analysis>
		<time_steps>50</time_steps>
		<step_size>0.02</step_size>
		<plot_zero_state>0</plot_zero_state>
		<plot_range>0,-1</plot_range>
		<plot_level>PLOT_MAJOR_ITRS</plot_level>
		<output_level>OUTPUT_MAJOR_ITRS</output_level>
		<plot_stride>1</plot_stride>
		<adaptor_re_solve>1</adaptor_re_solve>
		<time_stepper type="default">
			<max_retries>5</max_retries>
			<opt_iter>15</opt_iter>
			<dtmin>0.01</dtmin>
			<dtmax>0.02</dtmax>
			<aggressiveness>0</aggressiveness>
			<cutback>0.5</cutback>
			<dtforce>0</dtforce>
		</time_stepper>
		<solver type="solid">
			<symmetric_stiffness>symmetric</symmetric_stiffness>
			<equation_scheme>staggered</equation_scheme>
			<equation_order>default</equation_order>
			<optimize_bw>0</optimize_bw>
			<lstol>0.9</lstol>
			<lsmin>0.01</lsmin>
			<lsiter>5</lsiter>
			<max_refs>15</max_refs>
			<check_zero_diagonal>0</check_zero_diagonal>
			<zero_diagonal_tol>0</zero_diagonal_tol>
			<force_partition>0</force_partition>
			<reform_each_time_step>1</reform_each_time_step>
			<reform_augment>0</reform_augment>
			<diverge_reform>1</diverge_reform>
			<min_residual>1e-20</min_residual>
			<max_residual>0</max_residual>
			<dtol>0.001</dtol>
			<etol>0.01</etol>
			<rtol>0</rtol>
			<rhoi>-2</rhoi>
			<alpha>1</alpha>
			<beta>0.25</beta>
			<gamma>0.5</gamma>
			<logSolve>0</logSolve>
			<arc_length>0</arc_length>
			<arc_length_scale>0</arc_length_scale>
			<qn_method type="BFGS">
				<max_ups>10</max_ups>
				<max_buffer_size>0</max_buffer_size>
				<cycle_buffer>1</cycle_buffer>
				<cmax>100000</cmax>
			</qn_method>
		</solver>
	</Control>
	<Globals>
		<Constants>
			<T>0</T>
			<R>0</R>
			<Fc>0</Fc>
		</Constants>
	</Globals>
	<Material>
		<material id="1" name="Material 2" type="neo-Hookean">
			<density>1</density>
			<E>1</E>
			<v>0.33</v>
		</material>
		<material id="2" name="Material 3" type="neo-Hookean">
			<density>1</density>
			<E>1</E>
			<v>0.33</v>
		</material>
	</Material>
	<Mesh>
		<Nodes name="Object01">
			<node id="1">0.80000001,0,0</node>
			<node id="2">0.90000001,0,0</node>
			<node id="3">1,0,0</node>
			<node id="4">0.73910364,0.30614675,0</node>
			<node id="5">0.83149159,0.34441509,0</node>
			<node id="6">0.92387954,0.38268343,0</node>
			<node id="7">0.56568544,0.56568543,0</node>
			<node id="8">0.63639612,0.6363961,0</node>
			<node id="9">0.70710679,0.70710677,0</node>
			<node id="10">0.30614677,0.73910363,0</node>
			<node id="11">0.34441511,0.83149158,0</node>
			<node id="12">0.38268345,0.92387952,0</node>
			<node id="13">2.1435918e-08,0.80000001,0</node>
			<node id="14">2.4115407e-08,0.90000001,0</node>
			<node id="15">2.6794897e-08,1,0</node>
			<node id="16">-0.30614673,0.73910365,0</node>
			<node id="17">-0.34441506,0.8314916,0</node>
			<node id="18">-0.3826834,0.92387955,0</node>
			<node id="19">-0.56568541,0.56568546,0</node>
			<node id="20">-0.63639608,0.63639613,0</node>
<!-- ... 1996 like lines cut -->
		</Nodes>
		<Elements type="hex8" name="Part5">
			<elem id="1">1009,1010,1013,1012,1057,1058,1061,1060</elem>
			<elem id="2">1010,1011,1014,1013,1058,1059,1062,1061</elem>
			<elem id="3">1012,1013,1016,1015,1060,1061,1064,1063</elem>
			<elem id="4">1013,1014,1017,1016,1061,1062,1065,1064</elem>
			<elem id="5">1015,1016,1019,1018,1063,1064,1067,1066</elem>
			<elem id="6">1016,1017,1020,1019,1064,1065,1068,1067</elem>
			<elem id="7">1018,1019,1022,1021,1066,1067,1070,1069</elem>
			<elem id="8">1019,1020,1023,1022,1067,1068,1071,1070</elem>
			<elem id="9">1021,1022,1025,1024,1069,1070,1073,1072</elem>
			<elem id="10">1022,1023,1026,1025,1070,1071,1074,1073</elem>
			<elem id="11">1024,1025,1028,1027,1072,1073,1076,1075</elem>
			<elem id="12">1025,1026,1029,1028,1073,1074,1077,1076</elem>
			<elem id="13">1027,1028,1031,1030,1075,1076,1079,1078</elem>
			<elem id="14">1028,1029,1032,1031,1076,1077,1080,1079</elem>
			<elem id="15">1030,1031,1034,1033,1078,1079,1082,1081</elem>
			<elem id="16">1031,1032,1035,1034,1079,1080,1083,1082</elem>
			<elem id="17">1033,1034,1037,1036,1081,1082,1085,1084</elem>
			<elem id="18">1034,1035,1038,1037,1082,1083,1086,1085</elem>
			<elem id="19">1036,1037,1040,1039,1084,1085,1088,1087</elem>
			<elem id="20">1037,1038,1041,1040,1085,1086,1089,1088</elem>
<!-- ... 620 like lines cut -->
		</Elements>
		<Elements type="hex8" name="Part6">
			<elem id="641">1,2,5,4,49,50,53,52</elem>
			<elem id="642">2,3,6,5,50,51,54,53</elem>
			<elem id="643">4,5,8,7,52,53,56,55</elem>
			<elem id="644">5,6,9,8,53,54,57,56</elem>
			<elem id="645">7,8,11,10,55,56,59,58</elem>
			<elem id="646">8,9,12,11,56,57,60,59</elem>
			<elem id="647">10,11,14,13,58,59,62,61</elem>
			<elem id="648">11,12,15,14,59,60,63,62</elem>
			<elem id="649">13,14,17,16,61,62,65,64</elem>
			<elem id="650">14,15,18,17,62,63,66,65</elem>
			<elem id="651">16,17,20,19,64,65,68,67</elem>
			<elem id="652">17,18,21,20,65,66,69,68</elem>
			<elem id="653">19,20,23,22,67,68,71,70</elem>
			<elem id="654">20,21,24,23,68,69,72,71</elem>
			<elem id="655">22,23,26,25,70,71,74,73</elem>
			<elem id="656">23,24,27,26,71,72,75,74</elem>
			<elem id="657">25,26,29,28,73,74,77,76</elem>
			<elem id="658">26,27,30,29,74,75,78,77</elem>
			<elem id="659">28,29,32,31,76,77,80,79</elem>
			<elem id="660">29,30,33,32,77,78,81,80</elem>
<!-- ... 620 like lines cut -->
		</Elements>
		<NodeSet name="FixedDisplacement01">
			1, 2, 3, 4, 5, 6, 7, 8,
			9, 10, 11, 12, 13, 14, 15, 16,
			17, 18, 19, 20, 21, 22, 23, 24,
			25, 26, 27, 28, 29, 30, 31, 32,
			33, 34, 35, 36, 37, 38, 39, 40,
			41, 42, 43, 44, 45, 46, 47, 48,
			961, 962, 963, 964, 965, 966, 967, 968,
			969, 970, 971, 972, 973, 974, 975, 976,
			977, 978, 979, 980, 981, 982, 983, 984,
			985, 986, 987, 988, 989, 990, 991, 992,
			993, 994, 995, 996, 997, 998, 999, 1000,
			1001, 1002, 1003, 1004, 1005, 1006, 1007, 1008
		</NodeSet>
		<NodeSet name="FixedDisplacement02">
			1, 2, 3, 4, 5, 6, 7, 8,
			9, 10, 11, 12, 13, 14, 15, 16,
			17, 18, 19, 20, 21, 22, 23, 24,
			25, 26, 27, 28, 29, 30, 31, 32,
			33, 34, 35, 36, 37, 38, 39, 40,
			41, 42, 43, 44, 45, 46, 47, 48,
			961, 962, 963, 964, 965, 966, 967, 968,
			969, 970, 971, 972, 973, 974, 975, 976,
			977, 978, 979, 980, 981, 982, 983, 984,
			985, 986, 987, 988, 989, 990, 991, 992,
			993, 994, 995, 996, 997, 998, 999, 1000,
			1001, 1002, 1003, 1004, 1005, 1006, 1007, 1008
		</NodeSet>
		<NodeSet name="FixedDisplacement03">
			1, 2, 3, 4, 5, 6, 7, 8,
			9, 10, 11, 12, 13, 14, 15, 16,
			17, 18, 19, 20, 21, 22, 23, 24,
			25, 26, 27, 28, 29, 30, 31, 32,
			33, 34, 35, 36, 37, 38, 39, 40,
			41, 42, 43, 44, 45, 46, 47, 48,
			961, 962, 963, 964, 965, 966, 967, 968,
			969, 970, 971, 972, 973, 974, 975, 976,
			977, 978, 979, 980, 981, 982, 983, 984,
			985, 986, 987, 988, 989, 990, 991, 992,
			993, 994, 995, 996, 997, 998, 999, 1000,
			1001, 1002, 1003, 1004, 1005, 1006, 1007, 1008
		</NodeSet>
		<NodeSet name="FixedDisplacement04">
			1009, 1010, 1011, 1012, 1013, 1014, 1015, 1016,
			1017, 1018, 1019, 1020, 1021, 1022, 1023, 1024,
			1025, 1026, 1027, 1028, 1029, 1030, 1031, 1032,
			1033, 1034, 1035, 1036, 1037, 1038, 1039, 1040,
			1041, 1042, 1043, 1044, 1045, 1046, 1047, 1048,
			1049, 1050, 1051, 1052, 1053, 1054, 1055, 1056,
			1969, 1970, 1971, 1972, 1973, 1974, 1975, 1976,
			1977, 1978, 1979, 1980, 1981, 1982, 1983, 1984,
			1985, 1986, 1987, 1988, 1989, 1990, 1991, 1992,
			1993, 1994, 1995, 1996, 1997, 1998, 1999, 2000,
			2001, 2002, 2003, 2004, 2005, 2006, 2007, 2008,
			2009, 2010, 2011, 2012, 2013, 2014, 2015, 2016
		</NodeSet>
		<NodeSet name="FixedDisplacement05">
			1009, 1010, 1011, 1012, 1013, 1014, 1015, 1016,
			1017, 1018, 1019, 1020, 1021, 1022, 1023, 1024,
			1025, 1026, 1027, 1028, 1029, 1030, 1031, 1032,
			1033, 1034, 1035, 1036, 1037, 1038, 1039, 1040,
			1041, 1042, 1043, 1044, 1045, 1046, 1047, 1048,
			1049, 1050, 1051, 1052, 1053, 1054, 1055, 1056,
			1969, 1970, 1971, 1972, 1973, 1974, 1975, 1976,
			1977, 1978, 1979, 1980, 1981, 1982, 1983, 1984,
			1985, 1986, 1987, 1988, 1989, 1990, 1991, 1992,
			1993, 1994, 1995, 1996, 1997, 1998, 1999, 2000,
			2001, 2002, 2003, 2004, 2005, 2006, 2007, 2008,
			2009, 2010, 2011, 2012, 2013, 2014, 2015, 2016
		</NodeSet>
		<NodeSet name="PrescribedBC45">
			1009, 1010, 1011, 1012, 1013, 1014, 1015, 1016,
			1017, 1018, 1019, 1020, 1021, 1022, 1023, 1024,
			1025, 1026, 1027, 1028, 1029, 1030, 1031, 1032,
			1033, 1034, 1035, 1036, 1037, 1038, 1039, 1040,
			1041, 1042, 1043, 1044, 1045, 1046, 1047, 1048,
			1049, 1050, 1051, 1052, 1053, 1054, 1055, 1056,
			1969, 1970, 1971, 1972, 1973, 1974, 1975, 1976,
			1977, 1978, 1979, 1980, 1981, 1982, 1983, 1984,
			1985, 1986, 1987, 1988, 1989, 1990, 1991, 1992,
			1993, 1994, 1995, 1996, 1997, 1998, 1999, 2000,
			2001, 2002, 2003, 2004, 2005, 2006, 2007, 2008,
			2009, 2010, 2011, 2012, 2013, 2014, 2015, 2016
		</NodeSet>
		<Surface name="PrimarySurface01">
			<quad4 id="1">1023,1026,1074,1071</quad4>
			<quad4 id="2">1026,1029,1077,1074</quad4>
			<quad4 id="3">1029,1032,1080,1077</quad4>
			<quad4 id="4">1032,1035,1083,1080</quad4>
			<quad4 id="5">1035,1038,1086,1083</quad4>
			<quad4 id="6">1038,1041,1089,1086</quad4>
			<quad4 id="7">1041,1044,1092,1089</quad4>
			<quad4 id="8">1044,1047,1095,1092</quad4>
			<quad4 id="9">1071,1074,1122,1119</quad4>
			<quad4 id="10">1074,1077,1125,1122</quad4>
			<quad4 id="11">1077,1080,1128,1125</quad4>
			<quad4 id="12">1080,1083,1131,1128</quad4>
			<quad4 id="13">1083,1086,1134,1131</quad4>
			<quad4 id="14">1086,1089,1137,1134</quad4>
			<quad4 id="15">1089,1092,1140,1137</quad4>
			<quad4 id="16">1092,1095,1143,1140</quad4>
			<quad4 id="17">1119,1122,1170,1167</quad4>
			<quad4 id="18">1122,1125,1173,1170</quad4>
			<quad4 id="19">1125,1128,1176,1173</quad4>
			<quad4 id="20">1128,1131,1179,1176</quad4>
<!-- ... 140 like lines cut -->
		</Surface>
		<Surface name="SecondarySurface01">
			<quad4 id="1">3,6,54,51</quad4>
			<quad4 id="2">6,9,57,54</quad4>
			<quad4 id="3">9,12,60,57</quad4>
			<quad4 id="4">12,15,63,60</quad4>
			<quad4 id="5">39,42,90,87</quad4>
			<quad4 id="6">42,45,93,90</quad4>
			<quad4 id="7">45,48,96,93</quad4>
			<quad4 id="8">48,3,51,96</quad4>
			<quad4 id="9">51,54,102,99</quad4>
			<quad4 id="10">54,57,105,102</quad4>
			<quad4 id="11">57,60,108,105</quad4>
			<quad4 id="12">60,63,111,108</quad4>
			<quad4 id="13">87,90,138,135</quad4>
			<quad4 id="14">90,93,141,138</quad4>
			<quad4 id="15">93,96,144,141</quad4>
			<quad4 id="16">96,51,99,144</quad4>
			<quad4 id="17">99,102,150,147</quad4>
			<quad4 id="18">102,105,153,150</quad4>
			<quad4 id="19">105,108,156,153</quad4>
			<quad4 id="20">108,111,159,156</quad4>
<!-- ... 140 like lines cut -->
		</Surface>
		<ElementSet name="unnamed_set01">
			946
		</ElementSet>
		<SurfacePair name="SlidingInterface01">
			<primary>PrimarySurface01</primary>
			<secondary>SecondarySurface01</secondary>
		</SurfacePair>
	</Mesh>
	<MeshDomains>
		<SolidDomain name="Part5" mat="Material 2"/>
		<SolidDomain name="Part6" mat="Material 3"/>
	</MeshDomains>
	<Boundary>
		<bc name="FixedDisplacement01" node_set="FixedDisplacement01" type="zero displacement">
			<x_dof>0</x_dof>
			<y_dof>0</y_dof>
			<z_dof>1</z_dof>
		</bc>
		<bc name="FixedDisplacement02" node_set="FixedDisplacement02" type="zero displacement">
			<x_dof>0</x_dof>
			<y_dof>1</y_dof>
			<z_dof>0</z_dof>
		</bc>
		<bc name="FixedDisplacement03" node_set="FixedDisplacement03" type="zero displacement">
			<x_dof>1</x_dof>
			<y_dof>0</y_dof>
			<z_dof>0</z_dof>
		</bc>
		<bc name="FixedDisplacement04" node_set="FixedDisplacement04" type="zero displacement">
			<x_dof>0</x_dof>
			<y_dof>0</y_dof>
			<z_dof>1</z_dof>
		</bc>
		<bc name="FixedDisplacement05" node_set="FixedDisplacement05" type="zero displacement">
			<x_dof>0</x_dof>
			<y_dof>1</y_dof>
			<z_dof>0</z_dof>
		</bc>
		<bc name="PrescribedBC45" node_set="PrescribedBC45" type="prescribed displacement">
			<dof>x</dof>
			<value lc="1">1</value>
			<relative>0</relative>
		</bc>
	</Boundary>
	<Contact>
		<contact name="SlidingInterface01" surface_pair="SlidingInterface01" type="sliding-node-on-facet">
			<laugon>AUGLAG</laugon>
			<tolerance>0.01</tolerance>
			<penalty>1</penalty>
			<auto_penalty>0</auto_penalty>
			<two_pass>1</two_pass>
			<gaptol>0</gaptol>
			<fric_coeff>0</fric_coeff>
			<fric_penalty>1</fric_penalty>
			<minaug>0</minaug>
			<maxaug>10</maxaug>
			<search_tol>0.01</search_tol>
			<ktmult>0</ktmult>
			<knmult>1</knmult>
			<node_reloc>0</node_reloc>
			<seg_up>0</seg_up>
			<search_radius>0</search_radius>
			<update_penalty>0</update_penalty>
		</contact>
	</Contact>
	<LoadData>
		<load_controller id="1" name="LC1" type="loadcurve">
			<interpolate>LINEAR</interpolate>
			<extend>CONSTANT</extend>
			<points>
				<pt>0,0</pt>
				<pt>1,-6</pt>
			</points>
		</load_controller>
	</LoadData>
	<Output>
		<plotfile type="febio">
			<var type="displacement"/>
			<var type="stress"/>
		</plotfile>
		<logfile>
			<element_data data="Ez" elem_set="unnamed_set01"/>
		</logfile>
	</Output>
</febio_spec>
