<?xml version="1.0" encoding="ISO-8859-1"?>
<!--
A 10 x 10 element planar block rises (with compression) in plane strain
over a ramped rigid bump.

This model has significant pentration without using Augmented Lagrangian.  The sliding_with_gaps
contact algorithm performed significantly better than the other three contact algorithms.
-->
<febio_spec version="4.0">
	<Module type="solid"/>
	<Control>
		<analysis>STATIC</analysis>
		<time_steps>24</time_steps>
		<step_size>0.1</step_size>
		<plot_zero_state>0</plot_zero_state>
		<plot_range>0,-1</plot_range>
		<plot_level>PLOT_MAJOR_ITRS</plot_level>
		<output_level>OUTPUT_MAJOR_ITRS</output_level>
		<plot_stride>1</plot_stride>
		<adaptor_re_solve>1</adaptor_re_solve>
		<time_stepper type="default">
			<max_retries>5</max_retries>
			<opt_iter>24</opt_iter>
			<dtmin>0.1</dtmin>
			<dtmax lc="1">0</dtmax>
			<aggressiveness>0</aggressiveness>
			<cutback>0.5</cutback>
			<dtforce>0</dtforce>
		</time_stepper>
		<solver type="solid">
			<symmetric_stiffness>symmetric</symmetric_stiffness>
			<equation_scheme>staggered</equation_scheme>
			<equation_order>default</equation_order>
			<optimize_bw>0</optimize_bw>
			<lstol>999</lstol>
			<lsmin>0.01</lsmin>
			<lsiter>5</lsiter>
			<max_refs>100</max_refs>
			<check_zero_diagonal>0</check_zero_diagonal>
			<zero_diagonal_tol>0</zero_diagonal_tol>
			<force_partition>0</force_partition>
			<reform_each_time_step>1</reform_each_time_step>
			<reform_augment>0</reform_augment>
			<diverge_reform>1</diverge_reform>
			<min_residual>1e-20</min_residual>
			<max_residual>0</max_residual>
			<dtol>0.001</dtol>
			<etol>0.01</etol>
			<rtol>0</rtol>
			<rhoi>-2</rhoi>
			<alpha>1</alpha>
			<beta>0.25</beta>
			<gamma>0.5</gamma>
			<logSolve>0</logSolve>
			<arc_length>0</arc_length>
			<arc_length_scale>0</arc_length_scale>
			<qn_method type="BFGS">
				<max_ups>0</max_ups>
				<max_buffer_size>0</max_buffer_size>
				<cycle_buffer>1</cycle_buffer>
				<cmax>100000</cmax>
			</qn_method>
		</solver>
	</Control>
	<Globals>
		<Constants>
			<T>0</T>
			<R>0</R>
			<Fc>0</Fc>
		</Constants>
	</Globals>
	<Material>
		<material id="1" name="Material 1" type="Mooney-Rivlin">
			<density>1</density>
			<k>100</k>
			<pressure_model>default</pressure_model>
			<c1>1</c1>
			<c2>0</c2>
		</material>
		<material id="2" name="Material 2" type="rigid body">
			<density>1</density>
			<E>1</E>
			<v>0</v>
		</material>
	</Material>
	<Mesh>
		<Nodes name="Object01">
			<node id="1">-1.2,-0.2,0</node>
			<node id="2">-1.2,-0.2,0.1</node>
			<node id="3">-1.2,-0.1,0</node>
			<node id="4">-1.2,-0.1,0.1</node>
			<node id="5">-1.2,0,0</node>
			<node id="6">-1.2,0,0.1</node>
			<node id="7">-1.2,0.1,0</node>
			<node id="8">-1.2,0.1,0.1</node>
			<node id="9">-1.2,0.2,0</node>
			<node id="10">-1.2,0.2,0.1</node>
			<node id="11">-1.2,0.3,0</node>
			<node id="12">-1.2,0.3,0.1</node>
			<node id="13">-1.2,0.4,0</node>
			<node id="14">-1.2,0.4,0.1</node>
			<node id="15">-1.2,0.5,0</node>
			<node id="16">-1.2,0.5,0.1</node>
			<node id="17">-1.2,0.6,0</node>
			<node id="18">-1.2,0.6,0.1</node>
			<node id="19">-1.2,0.7,0</node>
			<node id="20">-1.2,0.7,0.1</node>
<!-- ... 238 like lines cut -->
		</Nodes>
		<Elements type="hex8" name="Part23">
			<elem id="1">1,23,25,3,2,24,26,4</elem>
			<elem id="2">3,25,27,5,4,26,28,6</elem>
			<elem id="3">5,27,29,7,6,28,30,8</elem>
			<elem id="4">7,29,31,9,8,30,32,10</elem>
			<elem id="5">9,31,33,11,10,32,34,12</elem>
			<elem id="6">11,33,35,13,12,34,36,14</elem>
			<elem id="7">13,35,37,15,14,36,38,16</elem>
			<elem id="8">15,37,39,17,16,38,40,18</elem>
			<elem id="9">17,39,41,19,18,40,42,20</elem>
			<elem id="10">19,41,43,21,20,42,44,22</elem>
			<elem id="11">23,45,47,25,24,46,48,26</elem>
			<elem id="12">25,47,49,27,26,48,50,28</elem>
			<elem id="13">27,49,51,29,28,50,52,30</elem>
			<elem id="14">29,51,53,31,30,52,54,32</elem>
			<elem id="15">31,53,55,33,32,54,56,34</elem>
			<elem id="16">33,55,57,35,34,56,58,36</elem>
			<elem id="17">35,57,59,37,36,58,60,38</elem>
			<elem id="18">37,59,61,39,38,60,62,40</elem>
			<elem id="19">39,61,63,41,40,62,64,42</elem>
			<elem id="20">41,63,65,43,42,64,66,44</elem>
<!-- ... 80 like lines cut -->
		</Elements>
		<Elements type="hex8" name="Part24">
			<elem id="101">243,247,249,245,244,248,250,246</elem>
			<elem id="102">247,251,253,249,248,252,254,250</elem>
			<elem id="103">251,255,257,253,252,256,258,254</elem>
		</Elements>
		<NodeSet name="FixedNodeset01">
			21, 22, 43, 44, 65, 66, 87, 88,
			109, 110, 131, 132, 153, 154, 175, 176,
			197, 198, 219, 220, 241, 242
		</NodeSet>
		<NodeSet name="FixedDisplacement02">
			1, 2, 3, 4, 5, 6, 7, 8,
			9, 10, 11, 12, 13, 14, 15, 16,
			17, 18, 19, 20, 21, 22, 23, 24,
			25, 26, 27, 28, 29, 30, 31, 32,
			33, 34, 35, 36, 37, 38, 39, 40,
			41, 42, 43, 44, 45, 46, 47, 48,
			49, 50, 51, 52, 53, 54, 55, 56,
			57, 58, 59, 60, 61, 62, 63, 64,
			65, 66, 67, 68, 69, 70, 71, 72,
			73, 74, 75, 76, 77, 78, 79, 80,
			81, 82, 83, 84, 85, 86, 87, 88,
			89, 90, 91, 92, 93, 94, 95, 96,
			97, 98, 99, 100, 101, 102, 103, 104,
			105, 106, 107, 108, 109, 110, 111, 112,
			113, 114, 115, 116, 117, 118, 119, 120,
			121, 122, 123, 124, 125, 126, 127, 128,
			129, 130, 131, 132, 133, 134, 135, 136,
			137, 138, 139, 140, 141, 142, 143, 144,
			145, 146, 147, 148, 149, 150, 151, 152,
			153, 154, 155, 156, 157, 158, 159, 160,
<!-- ... 41 like lines cut -->
		</NodeSet>
		<NodeSet name="FixedDisplacement03">
			243, 244, 245, 246, 247, 248, 249, 250,
			251, 252, 253, 254, 255, 256, 257, 258,
			243, 244, 245, 246, 247, 248, 249, 250,
			251, 252, 253, 254, 255, 256, 257, 258
		</NodeSet>
		<NodeSet name="PrescribedBC01">
			21, 22, 43, 44, 65, 66, 87, 88,
			109, 110, 131, 132, 153, 154, 175, 176,
			197, 198, 219, 220, 241, 242
		</NodeSet>
		<Surface name="PrimarySurface01">
			<quad4 id="1">1,23,24,2</quad4>
			<quad4 id="2">23,45,46,24</quad4>
			<quad4 id="3">45,67,68,46</quad4>
			<quad4 id="4">67,89,90,68</quad4>
			<quad4 id="5">89,111,112,90</quad4>
			<quad4 id="6">111,133,134,112</quad4>
			<quad4 id="7">133,155,156,134</quad4>
			<quad4 id="8">155,177,178,156</quad4>
			<quad4 id="9">177,199,200,178</quad4>
			<quad4 id="10">199,221,222,200</quad4>
		</Surface>
		<Surface name="SecondarySurface01">
			<quad4 id="1">257,253,254,258</quad4>
			<quad4 id="2">253,249,250,254</quad4>
			<quad4 id="3">249,245,246,250</quad4>
		</Surface>
		<ElementSet name="unnamed_set01">
			33
		</ElementSet>
		<SurfacePair name="SlidingInterface01">
			<primary>PrimarySurface01</primary>
			<secondary>SecondarySurface01</secondary>
		</SurfacePair>
	</Mesh>
	<MeshDomains>
		<SolidDomain name="Part23" mat="Material 1"/>
		<SolidDomain name="Part24" mat="Material 2"/>
	</MeshDomains>
	<Boundary>
		<bc name="FixedDisplacement01" node_set="FixedNodeset01" type="zero displacement">
			<x_dof>0</x_dof>
			<y_dof>1</y_dof>
			<z_dof>0</z_dof>
		</bc>
		<bc name="FixedDisplacement02" node_set="FixedDisplacement02" type="zero displacement">
			<x_dof>0</x_dof>
			<y_dof>0</y_dof>
			<z_dof>1</z_dof>
		</bc>
		<bc name="FixedDisplacement03" node_set="FixedDisplacement03" type="zero displacement">
			<x_dof>0</x_dof>
			<y_dof>0</y_dof>
			<z_dof>1</z_dof>
		</bc>
		<bc name="PrescribedBC01" node_set="PrescribedBC01" type="prescribed displacement">
			<dof>x</dof>
			<value lc="2">1</value>
			<relative>0</relative>
		</bc>
	</Boundary>
	<Rigid>
		<rigid_bc name="RigidFixed45" type="rigid_fixed">
			<rb>Material 2</rb>
			<Rx_dof>1</Rx_dof>
			<Ry_dof>1</Ry_dof>
			<Rz_dof>1</Rz_dof>
			<Ru_dof>1</Ru_dof>
			<Rv_dof>1</Rv_dof>
			<Rw_dof>1</Rw_dof>
		</rigid_bc>
	</Rigid>
	<Contact>
		<contact name="SlidingInterface01" surface_pair="SlidingInterface01" type="sliding-node-on-facet">
			<laugon>AUGLAG</laugon>
			<tolerance>0.005</tolerance>
			<penalty>1</penalty>
			<auto_penalty>1</auto_penalty>
			<two_pass>0</two_pass>
			<gaptol>0</gaptol>
			<fric_coeff>0</fric_coeff>
			<fric_penalty>0</fric_penalty>
			<minaug>0</minaug>
			<maxaug>10</maxaug>
			<search_tol>0.01</search_tol>
			<ktmult>0</ktmult>
			<knmult>1</knmult>
			<node_reloc>0</node_reloc>
			<seg_up>0</seg_up>
			<search_radius>0</search_radius>
			<update_penalty>0</update_penalty>
		</contact>
	</Contact>
	<LoadData>
		<load_controller id="1" name="LC1" type="loadcurve">
			<interpolate>STEP</interpolate>
			<extend>CONSTANT</extend>
			<points>
				<pt>0,0</pt>
				<pt>1.4,0.1</pt>
				<pt>2.4,0.1</pt>
			</points>
		</load_controller>
		<load_controller id="2" name="LC2" type="loadcurve">
			<interpolate>LINEAR</interpolate>
			<extend>CONSTANT</extend>
			<points>
				<pt>0,0</pt>
				<pt>2.4,2.4</pt>
			</points>
		</load_controller>
	</LoadData>
	<Output>
		<plotfile type="febio">
			<var type="displacement"/>
			<var type="stress"/>
		</plotfile>
	</Output>
</febio_spec>
