<?xml version="1.0" encoding="ISO-8859-1"?>
<!--
Two blocks undergo confined compression with nonconforming mesh contact
between them.  The bottom block is defined with a variable thickness mesh.
-->
<febio_spec version="4.0">
	<Module type="solid"/>
	<Control>
		<analysis>STATIC</analysis>
		<time_steps>20</time_steps>
		<step_size>250</step_size>
		<plot_zero_state>0</plot_zero_state>
		<plot_range>0,-1</plot_range>
		<plot_level>PLOT_MAJOR_ITRS</plot_level>
		<output_level>OUTPUT_MAJOR_ITRS</output_level>
		<plot_stride>1</plot_stride>
		<adaptor_re_solve>1</adaptor_re_solve>
		<solver type="solid">
			<symmetric_stiffness>non-symmetric</symmetric_stiffness>
			<equation_scheme>staggered</equation_scheme>
			<equation_order>default</equation_order>
			<optimize_bw>0</optimize_bw>
			<lstol>0.9</lstol>
			<lsmin>0.01</lsmin>
			<lsiter>5</lsiter>
			<max_refs>99</max_refs>
			<check_zero_diagonal>0</check_zero_diagonal>
			<zero_diagonal_tol>0</zero_diagonal_tol>
			<force_partition>0</force_partition>
			<reform_each_time_step>1</reform_each_time_step>
			<reform_augment>0</reform_augment>
			<diverge_reform>1</diverge_reform>
			<min_residual>1e-20</min_residual>
			<max_residual>0</max_residual>
			<dtol>0.001</dtol>
			<etol>0.01</etol>
			<rtol>0</rtol>
			<rhoi>-2</rhoi>
			<alpha>1</alpha>
			<beta>0.25</beta>
			<gamma>0.5</gamma>
			<logSolve>0</logSolve>
			<arc_length>0</arc_length>
			<arc_length_scale>0</arc_length_scale>
			<qn_method type="BFGS">
				<max_ups>0</max_ups>
				<max_buffer_size>0</max_buffer_size>
				<cycle_buffer>1</cycle_buffer>
				<cmax>100000</cmax>
			</qn_method>
		</solver>
	</Control>
	<Globals>
		<Constants>
			<T>0</T>
			<R>0</R>
			<Fc>0</Fc>
		</Constants>
	</Globals>
	<Material>
		<material id="1" name="Material 1" type="Holmes-Mow">
			<density>1</density>
			<E>0.4</E>
			<v>0</v>
			<beta>0.35</beta>
		</material>
	</Material>
	<Mesh>
		<Nodes name="Object01">
			<node id="1">-6,0,0</node>
			<node id="2">-6,0,1</node>
			<node id="3">-6,0.16666667,0</node>
			<node id="4">-6,0.16666667,1</node>
			<node id="5">-6,0.33333333,0</node>
			<node id="6">-6,0.33333333,1</node>
			<node id="7">-6,0.5,0</node>
			<node id="8">-6,0.5,1</node>
			<node id="9">-6,0.66666667,0</node>
			<node id="10">-6,0.66666667,1</node>
			<node id="11">-6,0.83333333,0</node>
			<node id="12">-6,0.83333333,1</node>
			<node id="13">-6,1,0</node>
			<node id="14">-6,1,1</node>
			<node id="15">-6,1.1666667,0</node>
			<node id="16">-6,1.1666667,1</node>
			<node id="17">-6,1.3333333,0</node>
			<node id="18">-6,1.3333333,1</node>
			<node id="19">-6,1.5,0</node>
			<node id="20">-6,1.5,1</node>
<!-- ... 368 like lines cut -->
		</Nodes>
		<Elements type="hex8" name="Part25">
			<elem id="1">1,27,29,3,2,28,30,4</elem>
			<elem id="2">3,29,31,5,4,30,32,6</elem>
			<elem id="3">5,31,33,7,6,32,34,8</elem>
			<elem id="4">7,33,35,9,8,34,36,10</elem>
			<elem id="5">9,35,37,11,10,36,38,12</elem>
			<elem id="6">11,37,39,13,12,38,40,14</elem>
			<elem id="7">13,39,41,15,14,40,42,16</elem>
			<elem id="8">15,41,43,17,16,42,44,18</elem>
			<elem id="9">17,43,45,19,18,44,46,20</elem>
			<elem id="10">19,45,47,21,20,46,48,22</elem>
			<elem id="11">21,47,49,23,22,48,50,24</elem>
			<elem id="12">23,49,51,25,24,50,52,26</elem>
			<elem id="13">27,53,55,29,28,54,56,30</elem>
			<elem id="14">29,55,57,31,30,56,58,32</elem>
			<elem id="15">31,57,59,33,32,58,60,34</elem>
			<elem id="16">33,59,61,35,34,60,62,36</elem>
			<elem id="17">35,61,63,37,36,62,64,38</elem>
			<elem id="18">37,63,65,39,38,64,66,40</elem>
			<elem id="19">39,65,67,41,40,66,68,42</elem>
			<elem id="20">41,67,69,43,42,68,70,44</elem>
<!-- ... 124 like lines cut -->
		</Elements>
		<NodeSet name="FixedDisplacement01">
			1, 2, 3, 4, 5, 6, 7, 8,
			9, 10, 11, 12, 13, 14, 15, 16,
			17, 18, 19, 20, 21, 22, 23, 24,
			25, 26, 27, 28, 29, 30, 31, 32,
			33, 34, 35, 36, 37, 38, 39, 40,
			41, 42, 43, 44, 45, 46, 47, 48,
			49, 50, 51, 52, 53, 54, 55, 56,
			57, 58, 59, 60, 61, 62, 63, 64,
			65, 66, 67, 68, 69, 70, 71, 72,
			73, 74, 75, 76, 77, 78, 79, 80,
			81, 82, 83, 84, 85, 86, 87, 88,
			89, 90, 91, 92, 93, 94, 95, 96,
			97, 98, 99, 100, 101, 102, 103, 104,
			105, 106, 107, 108, 109, 110, 111, 112,
			113, 114, 115, 116, 117, 118, 119, 120,
			121, 122, 123, 124, 125, 126, 127, 128,
			129, 130, 131, 132, 133, 134, 135, 136,
			137, 138, 139, 140, 141, 142, 143, 144,
			145, 146, 147, 148, 149, 150, 151, 152,
			153, 154, 155, 156, 157, 158, 159, 160,
<!-- ... 29 like lines cut -->
		</NodeSet>
		<NodeSet name="FixedDisplacement02">
			1, 2, 3, 4, 5, 6, 7, 8,
			9, 10, 11, 12, 13, 14, 15, 16,
			17, 18, 19, 20, 21, 22, 23, 24,
			25, 26, 131, 132, 133, 134, 135, 136,
			137, 138, 139, 140, 141, 142, 143, 144,
			145, 146, 147, 148, 149, 150, 151, 152,
			153, 154, 155, 156, 157, 158, 159, 160,
			161, 162, 163, 164, 165, 166, 167, 168,
			169, 170, 171, 172, 173, 174, 175, 176,
			177, 178, 179, 180, 181, 182, 183, 184,
			185, 186, 187, 188, 189, 190, 191, 192,
			193, 194, 195, 196, 197, 198, 199, 200,
			201, 202, 203, 204, 205, 206, 207, 208,
			209, 210, 211, 212, 213, 214, 331, 332,
			333, 334, 335, 336, 337, 338, 339, 340,
			341, 342, 343, 344, 345, 346, 347, 348,
			349, 350, 351, 352, 353, 354, 355, 356,
			357, 358, 359, 360, 361, 362, 363, 364,
			365, 366, 367, 368, 369, 370, 371, 372,
			373, 374, 375, 376, 377, 378, 379, 380,
			381, 382, 383, 384, 385, 386, 387, 388
		</NodeSet>
		<NodeSet name="FixedDisplacement03">
			157, 158, 215, 216, 273, 274, 331, 332
		</NodeSet>
		<NodeSet name="PrescribedBC58">
			25, 26, 51, 52, 77, 78, 103, 104,
			129, 130, 155, 156
		</NodeSet>
		<Surface name="PrimarySurface01">
			<quad4 id="1">271,213,214,272</quad4>
			<quad4 id="2">329,271,272,330</quad4>
			<quad4 id="3">387,329,330,388</quad4>
		</Surface>
		<Surface name="SecondarySurface01">
			<quad4 id="1">1,27,28,2</quad4>
			<quad4 id="2">27,53,54,28</quad4>
			<quad4 id="3">53,79,80,54</quad4>
			<quad4 id="4">79,105,106,80</quad4>
			<quad4 id="5">105,131,132,106</quad4>
		</Surface>
		<ElementSet name="unnamed_set01">
			60
		</ElementSet>
		<SurfacePair name="TCInterface01">
			<primary>PrimarySurface01</primary>
			<secondary>SecondarySurface01</secondary>
		</SurfacePair>
	</Mesh>
	<MeshDomains>
		<SolidDomain name="Part25" mat="Material 1"/>
	</MeshDomains>
	<Boundary>
		<bc name="FixedDisplacement01" node_set="FixedDisplacement01" type="zero displacement">
			<x_dof>0</x_dof>
			<y_dof>0</y_dof>
			<z_dof>1</z_dof>
		</bc>
		<bc name="FixedDisplacement02" node_set="FixedDisplacement02" type="zero displacement">
			<x_dof>1</x_dof>
			<y_dof>0</y_dof>
			<z_dof>0</z_dof>
		</bc>
		<bc name="FixedDisplacement03" node_set="FixedDisplacement03" type="zero displacement">
			<x_dof>0</x_dof>
			<y_dof>1</y_dof>
			<z_dof>0</z_dof>
		</bc>
		<bc name="PrescribedBC58" node_set="PrescribedBC58" type="prescribed displacement">
			<dof>y</dof>
			<value lc="1">1</value>
			<relative>0</relative>
		</bc>
	</Boundary>
	<Contact>
		<contact name="TCInterface01" surface_pair="TCInterface01" type="sliding-elastic">
			<laugon>PENALTY</laugon>
			<tolerance>0.05</tolerance>
			<gaptol>0</gaptol>
			<penalty>1</penalty>
			<auto_penalty>1</auto_penalty>
			<update_penalty>0</update_penalty>
			<two_pass>1</two_pass>
			<knmult>0</knmult>
			<search_tol>0.01</search_tol>
			<symmetric_stiffness>0</symmetric_stiffness>
			<search_radius>1</search_radius>
			<seg_up>0</seg_up>
			<tension>0</tension>
			<minaug>0</minaug>
			<maxaug>10</maxaug>
			<node_reloc>0</node_reloc>
			<fric_coeff>0</fric_coeff>
			<smooth_aug>0</smooth_aug>
			<flip_primary>0</flip_primary>
			<flip_secondary>0</flip_secondary>
			<shell_bottom_primary>0</shell_bottom_primary>
			<shell_bottom_secondary>0</shell_bottom_secondary>
			<offset>0</offset>
		</contact>
	</Contact>
	<LoadData>
		<load_controller id="1" name="LC1" type="loadcurve">
			<interpolate>LINEAR</interpolate>
			<extend>CONSTANT</extend>
			<points>
				<pt>0,0</pt>
				<pt>5000,-0.5</pt>
				<pt>10000,-0.5</pt>
			</points>
		</load_controller>
	</LoadData>
	<Output>
		<plotfile type="febio">
			<var type="displacement"/>
			<var type="stress"/>
		</plotfile>
		<logfile>
			<element_data data="sy" elem_set="unnamed_set01"/>
		</logfile>
	</Output>
</febio_spec>
