<?xml version="1.0" encoding="ISO-8859-1"?>
<!--
Two incongruent cylindrical sections are compressed against each other in plain strain.

The penetration is actually a bit better using Augmented Lagrangian, but this
demonstrates that a reasonable penetration can be obtained with trialanderror
selection of the contact penalty parameter.  The other contact methods either
error terminated or had too significant penetration.
-->
<febio_spec version="4.0">
	<Module type="solid"/>
	<Control>
		<analysis>STATIC</analysis>
		<time_steps>20</time_steps>
		<step_size>0.05</step_size>
		<plot_zero_state>0</plot_zero_state>
		<plot_range>0,-1</plot_range>
		<plot_level>PLOT_MAJOR_ITRS</plot_level>
		<output_level>OUTPUT_MAJOR_ITRS</output_level>
		<plot_stride>1</plot_stride>
		<adaptor_re_solve>1</adaptor_re_solve>
		<solver type="solid">
			<symmetric_stiffness>non-symmetric</symmetric_stiffness>
			<equation_scheme>staggered</equation_scheme>
			<equation_order>default</equation_order>
			<optimize_bw>0</optimize_bw>
			<lstol>999</lstol>
			<lsmin>0.01</lsmin>
			<lsiter>5</lsiter>
			<max_refs>50</max_refs>
			<check_zero_diagonal>0</check_zero_diagonal>
			<zero_diagonal_tol>0</zero_diagonal_tol>
			<force_partition>0</force_partition>
			<reform_each_time_step>1</reform_each_time_step>
			<reform_augment>0</reform_augment>
			<diverge_reform>1</diverge_reform>
			<min_residual>1e-20</min_residual>
			<max_residual>0</max_residual>
			<dtol>0.1</dtol>
			<etol>0.01</etol>
			<rtol>0</rtol>
			<rhoi>-2</rhoi>
			<alpha>1</alpha>
			<beta>0.25</beta>
			<gamma>0.5</gamma>
			<logSolve>0</logSolve>
			<arc_length>0</arc_length>
			<arc_length_scale>0</arc_length_scale>
			<qn_method type="BFGS">
				<max_ups>0</max_ups>
				<max_buffer_size>0</max_buffer_size>
				<cycle_buffer>1</cycle_buffer>
				<cmax>100000</cmax>
			</qn_method>
		</solver>
	</Control>
	<Globals>
		<Constants>
			<T>0</T>
			<R>0</R>
			<Fc>0</Fc>
		</Constants>
	</Globals>
	<Material>
		<material id="1" name="Material 1" type="neo-Hookean">
			<density>1</density>
			<E>1</E>
			<v>0.45</v>
		</material>
		<material id="2" name="Material 2" type="neo-Hookean">
			<density>1</density>
			<E>1</E>
			<v>0.45</v>
		</material>
		<material id="3" name="Material 3" type="rigid body">
			<density>1</density>
			<E>1</E>
			<v>0</v>
		</material>
	</Material>
	<Mesh>
		<Nodes name="Object01">
			<node id="1">-7.234622e-08,-0.9,0</node>
			<node id="2">-7.3351029e-08,-0.9125,0</node>
			<node id="3">-7.4355838e-08,-0.925,0</node>
			<node id="4">-7.5360646e-08,-0.9375,0</node>
			<node id="5">-7.6365455e-08,-0.95,0</node>
			<node id="6">-7.7370263e-08,-0.9625,0</node>
			<node id="7">-7.8375072e-08,-0.975,0</node>
			<node id="8">-7.9379881e-08,-0.9875,0</node>
			<node id="9">-8.0384689e-08,-1,0</node>
			<node id="10">0.022087033,-0.89972894,0</node>
			<node id="11">0.022393797,-0.91222517,0</node>
			<node id="12">0.022700562,-0.92472141,0</node>
			<node id="13">0.023007326,-0.93721764,0</node>
			<node id="14">0.02331409,-0.94971388,0</node>
			<node id="15">0.023620855,-0.96221011,0</node>
			<node id="16">0.023927619,-0.97470635,0</node>
			<node id="17">0.024234383,-0.98720259,0</node>
			<node id="18">0.024541148,-0.99969882,0</node>
			<node id="19">0.044160834,-0.89891591,0</node>
			<node id="20">0.044774179,-0.91140086,0</node>
<!-- ... 1816 like lines cut -->
		</Nodes>
		<Elements type="hex8" name="Part26">
			<elem id="1">1,2,11,10,460,461,470,469</elem>
			<elem id="2">2,3,12,11,461,462,471,470</elem>
			<elem id="3">3,4,13,12,462,463,472,471</elem>
			<elem id="4">4,5,14,13,463,464,473,472</elem>
			<elem id="5">5,6,15,14,464,465,474,473</elem>
			<elem id="6">6,7,16,15,465,466,475,474</elem>
			<elem id="7">7,8,17,16,466,467,476,475</elem>
			<elem id="8">8,9,18,17,467,468,477,476</elem>
			<elem id="9">10,11,20,19,469,470,479,478</elem>
			<elem id="10">11,12,21,20,470,471,480,479</elem>
			<elem id="11">12,13,22,21,471,472,481,480</elem>
			<elem id="12">13,14,23,22,472,473,482,481</elem>
			<elem id="13">14,15,24,23,473,474,483,482</elem>
			<elem id="14">15,16,25,24,474,475,484,483</elem>
			<elem id="15">16,17,26,25,475,476,485,484</elem>
			<elem id="16">17,18,27,26,476,477,486,485</elem>
			<elem id="17">19,20,29,28,478,479,488,487</elem>
			<elem id="18">20,21,30,29,479,480,489,488</elem>
			<elem id="19">21,22,31,30,480,481,490,489</elem>
			<elem id="20">22,23,32,31,481,482,491,490</elem>
<!-- ... 380 like lines cut -->
		</Elements>
		<Elements type="hex8" name="Part27">
			<elem id="401">919,920,929,928,1378,1379,1388,1387</elem>
			<elem id="402">920,921,930,929,1379,1380,1389,1388</elem>
			<elem id="403">921,922,931,930,1380,1381,1390,1389</elem>
			<elem id="404">922,923,932,931,1381,1382,1391,1390</elem>
			<elem id="405">923,924,933,932,1382,1383,1392,1391</elem>
			<elem id="406">924,925,934,933,1383,1384,1393,1392</elem>
			<elem id="407">925,926,935,934,1384,1385,1394,1393</elem>
			<elem id="408">926,927,936,935,1385,1386,1395,1394</elem>
			<elem id="409">928,929,938,937,1387,1388,1397,1396</elem>
			<elem id="410">929,930,939,938,1388,1389,1398,1397</elem>
			<elem id="411">930,931,940,939,1389,1390,1399,1398</elem>
			<elem id="412">931,932,941,940,1390,1391,1400,1399</elem>
			<elem id="413">932,933,942,941,1391,1392,1401,1400</elem>
			<elem id="414">933,934,943,942,1392,1393,1402,1401</elem>
			<elem id="415">934,935,944,943,1393,1394,1403,1402</elem>
			<elem id="416">935,936,945,944,1394,1395,1404,1403</elem>
			<elem id="417">937,938,947,946,1396,1397,1406,1405</elem>
			<elem id="418">938,939,948,947,1397,1398,1407,1406</elem>
			<elem id="419">939,940,949,948,1398,1399,1408,1407</elem>
			<elem id="420">940,941,950,949,1399,1400,1409,1408</elem>
<!-- ... 380 like lines cut -->
		</Elements>
		<NodeSet name="FixedDisplacement01">
			1, 2, 3, 4, 5, 6, 7, 8,
			9, 460, 461, 462, 463, 464, 465, 466,
			467, 468, 919, 920, 921, 922, 923, 924,
			925, 926, 927, 1378, 1379, 1380, 1381, 1382,
			1383, 1384, 1385, 1386
		</NodeSet>
		<NodeSet name="FixedDisplacement02">
			927, 1386
		</NodeSet>
		<NodeSet name="FixedDisplacement03">
			927, 1386
		</NodeSet>
		<NodeSet name="FixedDisplacement04">
			927, 936, 945, 954, 963, 972, 981, 990,
			999, 1008, 1017, 1026, 1035, 1044, 1053, 1062,
			1071, 1080, 1089, 1098, 1107, 1116, 1125, 1134,
			1143, 1152, 1161, 1170, 1179, 1188, 1197, 1206,
			1215, 1224, 1233, 1242, 1251, 1260, 1269, 1278,
			1287, 1296, 1305, 1314, 1323, 1332, 1341, 1350,
			1359, 1368, 1377, 1386, 1395, 1404, 1413, 1422,
			1431, 1440, 1449, 1458, 1467, 1476, 1485, 1494,
			1503, 1512, 1521, 1530, 1539, 1548, 1557, 1566,
			1575, 1584, 1593, 1602, 1611, 1620, 1629, 1638,
			1647, 1656, 1665, 1674, 1683, 1692, 1701, 1710,
			1719, 1728, 1737, 1746, 1755, 1764, 1773, 1782,
			1791, 1800, 1809, 1818, 1827, 1836
		</NodeSet>
		<NodeSet name="FixedDisplacement05">
			927, 936, 945, 954, 963, 972, 981, 990,
			999, 1008, 1017, 1026, 1035, 1044, 1053, 1062,
			1071, 1080, 1089, 1098, 1107, 1116, 1125, 1134,
			1143, 1152, 1161, 1170, 1179, 1188, 1197, 1206,
			1215, 1224, 1233, 1242, 1251, 1260, 1269, 1278,
			1287, 1296, 1305, 1314, 1323, 1332, 1341, 1350,
			1359, 1368, 1377, 1386, 1395, 1404, 1413, 1422,
			1431, 1440, 1449, 1458, 1467, 1476, 1485, 1494,
			1503, 1512, 1521, 1530, 1539, 1548, 1557, 1566,
			1575, 1584, 1593, 1602, 1611, 1620, 1629, 1638,
			1647, 1656, 1665, 1674, 1683, 1692, 1701, 1710,
			1719, 1728, 1737, 1746, 1755, 1764, 1773, 1782,
			1791, 1800, 1809, 1818, 1827, 1836
		</NodeSet>
		<NodeSet name="FixedDisplacement06">
			1, 2, 3, 4, 5, 6, 7, 8,
			9, 10, 11, 12, 13, 14, 15, 16,
			17, 18, 19, 20, 21, 22, 23, 24,
			25, 26, 27, 28, 29, 30, 31, 32,
			33, 34, 35, 36, 37, 38, 39, 40,
			41, 42, 43, 44, 45, 46, 47, 48,
			49, 50, 51, 52, 53, 54, 55, 56,
			57, 58, 59, 60, 61, 62, 63, 64,
			65, 66, 67, 68, 69, 70, 71, 72,
			73, 74, 75, 76, 77, 78, 79, 80,
			81, 82, 83, 84, 85, 86, 87, 88,
			89, 90, 91, 92, 93, 94, 95, 96,
			97, 98, 99, 100, 101, 102, 103, 104,
			105, 106, 107, 108, 109, 110, 111, 112,
			113, 114, 115, 116, 117, 118, 119, 120,
			121, 122, 123, 124, 125, 126, 127, 128,
			129, 130, 131, 132, 133, 134, 135, 136,
			137, 138, 139, 140, 141, 142, 143, 144,
			145, 146, 147, 148, 149, 150, 151, 152,
			153, 154, 155, 156, 157, 158, 159, 160,
<!-- ... 210 like lines cut -->
		</NodeSet>
		<NodeSet name="RigidNodeset 1">
			1, 10, 19, 28, 37, 46, 55, 64,
			73, 82, 91, 100, 109, 118, 127, 136,
			145, 154, 163, 172, 181, 190, 199, 208,
			217, 226, 235, 244, 253, 262, 271, 280,
			289, 298, 307, 316, 325, 334, 343, 352,
			361, 370, 379, 388, 397, 406, 415, 424,
			433, 442, 451, 460, 469, 478, 487, 496,
			505, 514, 523, 532, 541, 550, 559, 568,
			577, 586, 595, 604, 613, 622, 631, 640,
			649, 658, 667, 676, 685, 694, 703, 712,
			721, 730, 739, 748, 757, 766, 775, 784,
			793, 802, 811, 820, 829, 838, 847, 856,
			865, 874, 883, 892, 901, 910
		</NodeSet>
		<Surface name="PrimarySurface01">
			<quad4 id="1">9,18,477,468</quad4>
			<quad4 id="2">18,27,486,477</quad4>
			<quad4 id="3">27,36,495,486</quad4>
			<quad4 id="4">36,45,504,495</quad4>
			<quad4 id="5">45,54,513,504</quad4>
			<quad4 id="6">54,63,522,513</quad4>
			<quad4 id="7">63,72,531,522</quad4>
			<quad4 id="8">72,81,540,531</quad4>
			<quad4 id="9">81,90,549,540</quad4>
			<quad4 id="10">90,99,558,549</quad4>
			<quad4 id="11">99,108,567,558</quad4>
			<quad4 id="12">108,117,576,567</quad4>
			<quad4 id="13">117,126,585,576</quad4>
			<quad4 id="14">126,135,594,585</quad4>
			<quad4 id="15">135,144,603,594</quad4>
			<quad4 id="16">144,153,612,603</quad4>
			<quad4 id="17">153,162,621,612</quad4>
			<quad4 id="18">162,171,630,621</quad4>
			<quad4 id="19">171,180,639,630</quad4>
			<quad4 id="20">180,189,648,639</quad4>
<!-- ... 30 like lines cut -->
		</Surface>
		<Surface name="SecondarySurface01">
			<quad4 id="1">928,919,1378,1387</quad4>
			<quad4 id="2">937,928,1387,1396</quad4>
			<quad4 id="3">946,937,1396,1405</quad4>
			<quad4 id="4">955,946,1405,1414</quad4>
			<quad4 id="5">964,955,1414,1423</quad4>
			<quad4 id="6">973,964,1423,1432</quad4>
			<quad4 id="7">982,973,1432,1441</quad4>
			<quad4 id="8">991,982,1441,1450</quad4>
			<quad4 id="9">1000,991,1450,1459</quad4>
			<quad4 id="10">1009,1000,1459,1468</quad4>
			<quad4 id="11">1018,1009,1468,1477</quad4>
			<quad4 id="12">1027,1018,1477,1486</quad4>
			<quad4 id="13">1036,1027,1486,1495</quad4>
			<quad4 id="14">1045,1036,1495,1504</quad4>
			<quad4 id="15">1054,1045,1504,1513</quad4>
			<quad4 id="16">1063,1054,1513,1522</quad4>
			<quad4 id="17">1072,1063,1522,1531</quad4>
			<quad4 id="18">1081,1072,1531,1540</quad4>
			<quad4 id="19">1090,1081,1540,1549</quad4>
			<quad4 id="20">1099,1090,1549,1558</quad4>
<!-- ... 30 like lines cut -->
		</Surface>
		<ElementSet name="unnamed_set01">
			170
		</ElementSet>
		<SurfacePair name="TCInterface01">
			<primary>PrimarySurface01</primary>
			<secondary>SecondarySurface01</secondary>
		</SurfacePair>
	</Mesh>
	<MeshDomains>
		<SolidDomain name="Part26" mat="Material 1"/>
		<SolidDomain name="Part27" mat="Material 2"/>
	</MeshDomains>
	<Boundary>
		<bc name="FixedDisplacement01" node_set="FixedDisplacement01" type="zero displacement">
			<x_dof>1</x_dof>
			<y_dof>0</y_dof>
			<z_dof>0</z_dof>
		</bc>
		<bc name="FixedDisplacement02" node_set="FixedDisplacement02" type="zero displacement">
			<x_dof>0</x_dof>
			<y_dof>1</y_dof>
			<z_dof>0</z_dof>
		</bc>
		<bc name="FixedDisplacement03" node_set="FixedDisplacement03" type="zero displacement">
			<x_dof>1</x_dof>
			<y_dof>0</y_dof>
			<z_dof>0</z_dof>
		</bc>
		<bc name="FixedDisplacement04" node_set="FixedDisplacement04" type="zero displacement">
			<x_dof>0</x_dof>
			<y_dof>1</y_dof>
			<z_dof>0</z_dof>
		</bc>
		<bc name="FixedDisplacement05" node_set="FixedDisplacement05" type="zero displacement">
			<x_dof>1</x_dof>
			<y_dof>0</y_dof>
			<z_dof>0</z_dof>
		</bc>
		<bc name="FixedDisplacement06" node_set="FixedDisplacement06" type="zero displacement">
			<x_dof>0</x_dof>
			<y_dof>0</y_dof>
			<z_dof>1</z_dof>
		</bc>
		<bc name="RigidInterface03" node_set="RigidNodeset 1" type="rigid">
			<rb>Material 3</rb>
			<clamp_shells>1</clamp_shells>
		</bc>
	</Boundary>
	<Rigid>
		<rigid_bc name="RigidFixed46" type="rigid_fixed">
			<rb>Material 3</rb>
			<Rx_dof>1</Rx_dof>
			<Ry_dof>0</Ry_dof>
			<Rz_dof>1</Rz_dof>
			<Ru_dof>1</Ru_dof>
			<Rv_dof>1</Rv_dof>
			<Rw_dof>1</Rw_dof>
		</rigid_bc>
		<rigid_bc name="RigidDisplacement20" type="rigid_displacement">
			<rb>Material 3</rb>
			<dof>y</dof>
			<value lc="1">1</value>
			<relative>0</relative>
		</rigid_bc>
	</Rigid>
	<Contact>
		<contact name="TCInterface01" surface_pair="TCInterface01" type="sliding-elastic">
			<laugon>PENALTY</laugon>
			<tolerance>0.05</tolerance>
			<gaptol>0</gaptol>
			<penalty>10</penalty>
			<auto_penalty>1</auto_penalty>
			<update_penalty>0</update_penalty>
			<two_pass>1</two_pass>
			<knmult>1</knmult>
			<search_tol>0.01</search_tol>
			<symmetric_stiffness>0</symmetric_stiffness>
			<search_radius>1</search_radius>
			<seg_up>0</seg_up>
			<tension>0</tension>
			<minaug>0</minaug>
			<maxaug>10</maxaug>
			<node_reloc>0</node_reloc>
			<fric_coeff>0</fric_coeff>
			<smooth_aug>0</smooth_aug>
			<flip_primary>0</flip_primary>
			<flip_secondary>0</flip_secondary>
			<shell_bottom_primary>0</shell_bottom_primary>
			<shell_bottom_secondary>0</shell_bottom_secondary>
			<offset>0</offset>
		</contact>
	</Contact>
	<LoadData>
		<load_controller id="1" name="LC1" type="loadcurve">
			<interpolate>LINEAR</interpolate>
			<extend>CONSTANT</extend>
			<points>
				<pt>0,0</pt>
				<pt>1,-0.1</pt>
			</points>
		</load_controller>
	</LoadData>
	<Output>
		<plotfile type="febio">
			<var type="displacement"/>
			<var type="stress"/>
		</plotfile>
		<logfile>
			<element_data data="Ex" elem_set="unnamed_set01"/>
		</logfile>
	</Output>
</febio_spec>
