<?xml version="1.0" encoding="ISO-8859-1"?>
<!--
A semispherical rigid body in contact with a block of Ogden material is displaced
0.2 units in the zdirection (into the block) at time t=1.

This problem was changed to quarter symmetry to eliminate inconsistent convergence.
-->
<febio_spec version="4.0">
	<Module type="solid"/>
	<Control>
		<analysis>STATIC</analysis>
		<time_steps>10</time_steps>
		<step_size>0.1</step_size>
		<plot_zero_state>0</plot_zero_state>
		<plot_range>0,-1</plot_range>
		<plot_level>PLOT_MAJOR_ITRS</plot_level>
		<output_level>OUTPUT_MAJOR_ITRS</output_level>
		<plot_stride>1</plot_stride>
		<adaptor_re_solve>1</adaptor_re_solve>
		<time_stepper type="default">
			<max_retries>5</max_retries>
			<opt_iter>10</opt_iter>
			<dtmin>0.01</dtmin>
			<dtmax>0.1</dtmax>
			<aggressiveness>0</aggressiveness>
			<cutback>0.5</cutback>
			<dtforce>0</dtforce>
		</time_stepper>
		<solver type="solid">
			<symmetric_stiffness>symmetric</symmetric_stiffness>
			<equation_scheme>staggered</equation_scheme>
			<equation_order>default</equation_order>
			<optimize_bw>0</optimize_bw>
			<lstol>0.9</lstol>
			<lsmin>0.01</lsmin>
			<lsiter>5</lsiter>
			<max_refs>15</max_refs>
			<check_zero_diagonal>0</check_zero_diagonal>
			<zero_diagonal_tol>0</zero_diagonal_tol>
			<force_partition>0</force_partition>
			<reform_each_time_step>1</reform_each_time_step>
			<reform_augment>0</reform_augment>
			<diverge_reform>1</diverge_reform>
			<min_residual>1e-20</min_residual>
			<max_residual>0</max_residual>
			<dtol>0.001</dtol>
			<etol>0.01</etol>
			<rtol>0</rtol>
			<rhoi>-2</rhoi>
			<alpha>1</alpha>
			<beta>0.25</beta>
			<gamma>0.5</gamma>
			<logSolve>0</logSolve>
			<arc_length>0</arc_length>
			<arc_length_scale>0</arc_length_scale>
			<qn_method type="BFGS">
				<max_ups>10</max_ups>
				<max_buffer_size>0</max_buffer_size>
				<cycle_buffer>1</cycle_buffer>
				<cmax>100000</cmax>
			</qn_method>
		</solver>
	</Control>
	<Globals>
		<Constants>
			<T>0</T>
			<R>0</R>
			<Fc>0</Fc>
		</Constants>
	</Globals>
	<Material>
		<material id="1" name="Material1" type="Ogden">
			<density>1</density>
			<k>100</k>
			<pressure_model>default</pressure_model>
			<c1>0.0329</c1>
			<c2>0</c2>
			<c3>0</c3>
			<c4>0</c4>
			<c5>0</c5>
			<c6>0</c6>
			<m1>6.82</m1>
			<m2>1</m2>
			<m3>1</m3>
			<m4>1</m4>
			<m5>1</m5>
			<m6>1</m6>
		</material>
		<material id="2" name="Material2" type="rigid body">
			<density>1</density>
			<E>1</E>
			<v>0</v>
			<center_of_mass>0,0,0</center_of_mass>
		</material>
	</Material>
	<Mesh>
		<Nodes name="Object01">
			<node id="1">-2.7755576e-17,-2.7755576e-17,0</node>
			<node id="2">-2.7755576e-17,-2.7755576e-17,0.1</node>
			<node id="3">-2.7755576e-17,-2.7755576e-17,0.2</node>
			<node id="4">-2.7755576e-17,-2.7755576e-17,0.3</node>
			<node id="5">-2.7755576e-17,-2.7755576e-17,0.4</node>
			<node id="6">-2.7755576e-17,0.1,0</node>
			<node id="7">-2.7755576e-17,0.1,0.1</node>
			<node id="8">-2.7755576e-17,0.1,0.2</node>
			<node id="9">-2.7755576e-17,0.1,0.3</node>
			<node id="10">-2.7755576e-17,0.1,0.4</node>
			<node id="11">-2.7755576e-17,0.2,0</node>
			<node id="12">-2.7755576e-17,0.2,0.1</node>
			<node id="13">-2.7755576e-17,0.2,0.2</node>
			<node id="14">-2.7755576e-17,0.2,0.3</node>
			<node id="15">-2.7755576e-17,0.2,0.4</node>
			<node id="16">-2.7755576e-17,0.3,0</node>
			<node id="17">-2.7755576e-17,0.3,0.1</node>
			<node id="18">-2.7755576e-17,0.3,0.2</node>
			<node id="19">-2.7755576e-17,0.3,0.3</node>
			<node id="20">-2.7755576e-17,0.3,0.4</node>
<!-- ... 446 like lines cut -->
		</Nodes>
		<Elements type="hex8" name="Part32">
			<elem id="1">1,31,36,6,2,32,37,7</elem>
			<elem id="2">2,32,37,7,3,33,38,8</elem>
			<elem id="3">3,33,38,8,4,34,39,9</elem>
			<elem id="4">4,34,39,9,5,35,40,10</elem>
			<elem id="5">6,36,41,11,7,37,42,12</elem>
			<elem id="6">7,37,42,12,8,38,43,13</elem>
			<elem id="7">8,38,43,13,9,39,44,14</elem>
			<elem id="8">9,39,44,14,10,40,45,15</elem>
			<elem id="9">11,41,46,16,12,42,47,17</elem>
			<elem id="10">12,42,47,17,13,43,48,18</elem>
			<elem id="11">13,43,48,18,14,44,49,19</elem>
			<elem id="12">14,44,49,19,15,45,50,20</elem>
			<elem id="13">16,46,51,21,17,47,52,22</elem>
			<elem id="14">17,47,52,22,18,48,53,23</elem>
			<elem id="15">18,48,53,23,19,49,54,24</elem>
			<elem id="16">19,49,54,24,20,50,55,25</elem>
			<elem id="17">21,51,56,26,22,52,57,27</elem>
			<elem id="18">22,52,57,27,23,53,58,28</elem>
			<elem id="19">23,53,58,28,24,54,59,29</elem>
			<elem id="20">24,54,59,29,25,55,60,30</elem>
<!-- ... 80 like lines cut -->
		</Elements>
		<Elements type="hex8" name="Part33">
			<elem id="101">181,196,273,199,204,278,399,281</elem>
			<elem id="102">196,197,274,273,278,277,400,399</elem>
			<elem id="103">197,182,201,274,277,206,285,400</elem>
			<elem id="104">199,273,275,198,281,399,401,282</elem>
			<elem id="105">273,274,276,275,399,400,402,401</elem>
			<elem id="106">274,201,200,276,400,285,286,402</elem>
			<elem id="107">198,275,202,183,282,401,290,210</elem>
			<elem id="108">275,276,203,202,401,402,289,290</elem>
			<elem id="109">276,200,184,203,402,286,214,289</elem>
			<elem id="110">204,278,399,281,205,280,403,283</elem>
			<elem id="111">278,277,400,399,280,279,404,403</elem>
			<elem id="112">277,206,285,400,279,207,287,404</elem>
			<elem id="113">281,399,401,282,283,403,405,284</elem>
			<elem id="114">399,400,402,401,403,404,406,405</elem>
			<elem id="115">400,285,286,402,404,287,288,406</elem>
			<elem id="116">282,401,290,210,284,405,292,211</elem>
			<elem id="117">401,402,289,290,405,406,291,292</elem>
			<elem id="118">402,286,214,289,406,288,215,291</elem>
			<elem id="119">205,280,403,283,185,208,293,213</elem>
			<elem id="120">280,279,404,403,208,209,294,293</elem>
<!-- ... 169 like lines cut -->
		</Elements>
		<NodeSet name="FixedDisplacement01">
			1, 2, 3, 4, 5, 31, 32, 33,
			34, 35, 61, 62, 63, 64, 65, 91,
			92, 93, 94, 95, 121, 122, 123, 124,
			125, 151, 152, 153, 154, 155
		</NodeSet>
		<NodeSet name="FixedDisplacement02">
			1, 2, 3, 4, 5, 6, 7, 8,
			9, 10, 11, 12, 13, 14, 15, 16,
			17, 18, 19, 20, 21, 22, 23, 24,
			25, 26, 27, 28, 29, 30
		</NodeSet>
		<NodeSet name="FixedDisplacement03">
			5, 10, 15, 20, 25, 30, 35, 40,
			45, 50, 55, 60, 65, 70, 75, 80,
			85, 90, 95, 100, 105, 110, 115, 120,
			125, 130, 135, 140, 145, 150, 155, 160,
			165, 170, 175, 180
		</NodeSet>
		<NodeSet name="FixedDisplacement04">
			5, 10, 15, 20, 25, 30, 35, 40,
			45, 50, 55, 60, 65, 70, 75, 80,
			85, 90, 95, 100, 105, 110, 115, 120,
			125, 130, 135, 140, 145, 150, 155, 160,
			165, 170, 175, 180
		</NodeSet>
		<NodeSet name="FixedDisplacement05">
			5, 10, 15, 20, 25, 30, 35, 40,
			45, 50, 55, 60, 65, 70, 75, 80,
			85, 90, 95, 100, 105, 110, 115, 120,
			125, 130, 135, 140, 145, 150, 155, 160,
			165, 170, 175, 180
		</NodeSet>
		<Surface name="PrimarySurface01">
			<quad4 id="1">6,36,31,1</quad4>
			<quad4 id="2">11,41,36,6</quad4>
			<quad4 id="3">16,46,41,11</quad4>
			<quad4 id="4">21,51,46,16</quad4>
			<quad4 id="5">26,56,51,21</quad4>
			<quad4 id="6">36,66,61,31</quad4>
			<quad4 id="7">41,71,66,36</quad4>
			<quad4 id="8">46,76,71,41</quad4>
			<quad4 id="9">51,81,76,46</quad4>
			<quad4 id="10">56,86,81,51</quad4>
			<quad4 id="11">66,96,91,61</quad4>
			<quad4 id="12">71,101,96,66</quad4>
			<quad4 id="13">76,106,101,71</quad4>
			<quad4 id="14">81,111,106,76</quad4>
			<quad4 id="15">86,116,111,81</quad4>
			<quad4 id="16">96,126,121,91</quad4>
			<quad4 id="17">101,131,126,96</quad4>
			<quad4 id="18">106,136,131,101</quad4>
			<quad4 id="19">111,141,136,106</quad4>
			<quad4 id="20">116,146,141,111</quad4>
<!-- ... 5 like lines cut -->
		</Surface>
		<Surface name="SecondarySurface01">
			<quad4 id="1">189,226,317,232</quad4>
			<quad4 id="2">226,225,318,317</quad4>
			<quad4 id="3">225,191,239,318</quad4>
			<quad4 id="4">232,317,319,233</quad4>
			<quad4 id="5">317,318,320,319</quad4>
			<quad4 id="6">318,239,240,320</quad4>
			<quad4 id="7">233,319,242,193</quad4>
			<quad4 id="8">319,320,241,242</quad4>
			<quad4 id="9">320,240,195,241</quad4>
			<quad4 id="10">191,249,351,239</quad4>
			<quad4 id="11">249,248,352,351</quad4>
			<quad4 id="12">248,190,255,352</quad4>
			<quad4 id="13">239,351,353,240</quad4>
			<quad4 id="14">351,352,354,353</quad4>
			<quad4 id="15">352,255,256,354</quad4>
			<quad4 id="16">240,353,258,195</quad4>
			<quad4 id="17">353,354,257,258</quad4>
			<quad4 id="18">354,256,194,257</quad4>
			<quad4 id="19">192,270,395,271</quad4>
			<quad4 id="20">270,269,396,395</quad4>
<!-- ... 7 like lines cut -->
		</Surface>
		<ElementSet name="unnamed_set01">
			1
		</ElementSet>
		<SurfacePair name="SlidingContact01">
			<primary>PrimarySurface01</primary>
			<secondary>SecondarySurface01</secondary>
		</SurfacePair>
	</Mesh>
	<MeshDomains>
		<SolidDomain name="Part32" mat="Material1"/>
		<SolidDomain name="Part33" mat="Material2"/>
	</MeshDomains>
	<Boundary>
		<bc name="FixedDisplacement01" node_set="FixedDisplacement01" type="zero displacement">
			<x_dof>0</x_dof>
			<y_dof>1</y_dof>
			<z_dof>0</z_dof>
		</bc>
		<bc name="FixedDisplacement02" node_set="FixedDisplacement02" type="zero displacement">
			<x_dof>1</x_dof>
			<y_dof>0</y_dof>
			<z_dof>0</z_dof>
		</bc>
		<bc name="FixedDisplacement03" node_set="FixedDisplacement03" type="zero displacement">
			<x_dof>0</x_dof>
			<y_dof>0</y_dof>
			<z_dof>1</z_dof>
		</bc>
		<bc name="FixedDisplacement04" node_set="FixedDisplacement04" type="zero displacement">
			<x_dof>0</x_dof>
			<y_dof>1</y_dof>
			<z_dof>0</z_dof>
		</bc>
		<bc name="FixedDisplacement05" node_set="FixedDisplacement05" type="zero displacement">
			<x_dof>1</x_dof>
			<y_dof>0</y_dof>
			<z_dof>0</z_dof>
		</bc>
	</Boundary>
	<Rigid>
		<rigid_bc name="RigidFixed48" type="rigid_fixed">
			<rb>Material2</rb>
			<Rx_dof>1</Rx_dof>
			<Ry_dof>1</Ry_dof>
			<Rz_dof>0</Rz_dof>
			<Ru_dof>1</Ru_dof>
			<Rv_dof>1</Rv_dof>
			<Rw_dof>1</Rw_dof>
		</rigid_bc>
		<rigid_bc name="RigidDisplacement21" type="rigid_displacement">
			<rb>Material2</rb>
			<dof>z</dof>
			<value lc="1">1</value>
			<relative>0</relative>
		</rigid_bc>
	</Rigid>
	<Contact>
		<contact name="SlidingContact01" surface_pair="SlidingContact01" type="sliding-facet-on-facet">
			<laugon>AUGLAG</laugon>
			<penalty>10</penalty>
			<auto_penalty>0</auto_penalty>
			<update_penalty>0</update_penalty>
			<tolerance>0.5</tolerance>
			<two_pass>0</two_pass>
			<gaptol>0</gaptol>
			<minaug>0</minaug>
			<maxaug>10</maxaug>
			<smooth_aug>0</smooth_aug>
			<search_tol>0.01</search_tol>
			<search_radius>0</search_radius>
			<seg_up>0</seg_up>
			<node_reloc>0</node_reloc>
			<knmult>1</knmult>
		</contact>
	</Contact>
	<LoadData>
		<load_controller id="1" name="LC1" type="loadcurve">
			<interpolate>SMOOTH</interpolate>
			<extend>CONSTANT</extend>
			<points>
				<pt>0,0</pt>
				<pt>1,0.2</pt>
			</points>
		</load_controller>
	</LoadData>
	<Output>
		<plotfile type="febio">
			<var type="displacement"/>
			<var type="stress"/>
		</plotfile>
	</Output>
</febio_spec>
