<?xml version="1.0" encoding="ISO-8859-1"?>
<!--
A 2dimensional billet block is compressed between two rigid bodies which each have a
prescribed zdisplacement (compressing the block) of 0.6 units from time t=0 to t=1.

This problem is similiar to co22 but with Ogden unconstrained material and 10 time steps.
-->
<febio_spec version="4.0">
	<Module type="solid"/>
	<Control>
		<analysis>STATIC</analysis>
		<time_steps>10</time_steps>
		<step_size>0.1</step_size>
		<plot_zero_state>0</plot_zero_state>
		<plot_range>0,-1</plot_range>
		<plot_level>PLOT_MAJOR_ITRS</plot_level>
		<output_level>OUTPUT_MAJOR_ITRS</output_level>
		<plot_stride>1</plot_stride>
		<adaptor_re_solve>1</adaptor_re_solve>
		<time_stepper type="default">
			<max_retries>5</max_retries>
			<opt_iter>10</opt_iter>
			<dtmin>0.01</dtmin>
			<dtmax>0.1</dtmax>
			<aggressiveness>0</aggressiveness>
			<cutback>0.5</cutback>
			<dtforce>0</dtforce>
		</time_stepper>
		<solver type="solid">
			<symmetric_stiffness>non-symmetric</symmetric_stiffness>
			<equation_scheme>staggered</equation_scheme>
			<equation_order>default</equation_order>
			<optimize_bw>0</optimize_bw>
			<lstol>0.9</lstol>
			<lsmin>0.01</lsmin>
			<lsiter>5</lsiter>
			<max_refs>50</max_refs>
			<check_zero_diagonal>0</check_zero_diagonal>
			<zero_diagonal_tol>0</zero_diagonal_tol>
			<force_partition>0</force_partition>
			<reform_each_time_step>1</reform_each_time_step>
			<reform_augment>0</reform_augment>
			<diverge_reform>1</diverge_reform>
			<min_residual>1e-20</min_residual>
			<max_residual>0</max_residual>
			<dtol>0.001</dtol>
			<etol>0.01</etol>
			<rtol>0</rtol>
			<rhoi>-2</rhoi>
			<alpha>1</alpha>
			<beta>0.25</beta>
			<gamma>0.5</gamma>
			<logSolve>0</logSolve>
			<arc_length>0</arc_length>
			<arc_length_scale>0</arc_length_scale>
			<qn_method type="BFGS">
				<max_ups>0</max_ups>
				<max_buffer_size>0</max_buffer_size>
				<cycle_buffer>1</cycle_buffer>
				<cmax>100000</cmax>
			</qn_method>
		</solver>
	</Control>
	<Globals>
		<Constants>
			<T>0</T>
			<R>0</R>
			<Fc>0</Fc>
		</Constants>
	</Globals>
	<Material>
		<material id="1" name="billet" type="Ogden unconstrained">
			<density>1</density>
			<cp>0.1</cp>
			<c1>0.0329</c1>
			<c2>0</c2>
			<c3>0</c3>
			<c4>0</c4>
			<c5>0</c5>
			<c6>0</c6>
			<m1>6.82</m1>
			<m2>1</m2>
			<m3>1</m3>
			<m4>1</m4>
			<m5>1</m5>
			<m6>1</m6>
		</material>
		<material id="2" name="top" type="rigid body">
			<density>1</density>
			<E>1</E>
			<v>0</v>
		</material>
		<material id="3" name="bottom" type="rigid body">
			<density>1</density>
			<E>1</E>
			<v>0</v>
		</material>
	</Material>
	<Mesh>
		<Nodes name="Object01">
			<node id="1">-0.5,-0.5,-0.05</node>
			<node id="2">-0.45,-0.5,-0.05</node>
			<node id="3">-0.4,-0.5,-0.05</node>
			<node id="4">-0.35,-0.5,-0.05</node>
			<node id="5">-0.3,-0.5,-0.05</node>
			<node id="6">-0.25,-0.5,-0.05</node>
			<node id="7">-0.2,-0.5,-0.05</node>
			<node id="8">-0.15,-0.5,-0.05</node>
			<node id="9">-0.1,-0.5,-0.05</node>
			<node id="10">-0.05,-0.5,-0.05</node>
			<node id="11">0,-0.5,-0.05</node>
			<node id="12">0.05,-0.5,-0.05</node>
			<node id="13">0.1,-0.5,-0.05</node>
			<node id="14">0.15,-0.5,-0.05</node>
			<node id="15">0.2,-0.5,-0.05</node>
			<node id="16">0.25,-0.5,-0.05</node>
			<node id="17">0.3,-0.5,-0.05</node>
			<node id="18">0.35,-0.5,-0.05</node>
			<node id="19">0.4,-0.5,-0.05</node>
			<node id="20">0.45,-0.5,-0.05</node>
<!-- ... 2478 like lines cut -->
		</Nodes>
		<Elements type="hex8" name="Part1">
			<elem id="1">1,2,23,22,442,443,464,463</elem>
			<elem id="2">2,3,24,23,443,444,465,464</elem>
			<elem id="3">3,4,25,24,444,445,466,465</elem>
			<elem id="4">4,5,26,25,445,446,467,466</elem>
			<elem id="5">5,6,27,26,446,447,468,467</elem>
			<elem id="6">6,7,28,27,447,448,469,468</elem>
			<elem id="7">7,8,29,28,448,449,470,469</elem>
			<elem id="8">8,9,30,29,449,450,471,470</elem>
			<elem id="9">9,10,31,30,450,451,472,471</elem>
			<elem id="10">10,11,32,31,451,452,473,472</elem>
			<elem id="11">11,12,33,32,452,453,474,473</elem>
			<elem id="12">12,13,34,33,453,454,475,474</elem>
			<elem id="13">13,14,35,34,454,455,476,475</elem>
			<elem id="14">14,15,36,35,455,456,477,476</elem>
			<elem id="15">15,16,37,36,456,457,478,477</elem>
			<elem id="16">16,17,38,37,457,458,479,478</elem>
			<elem id="17">17,18,39,38,458,459,480,479</elem>
			<elem id="18">18,19,40,39,459,460,481,480</elem>
			<elem id="19">19,20,41,40,460,461,482,481</elem>
			<elem id="20">20,21,42,41,461,462,483,482</elem>
<!-- ... 1180 like lines cut -->
		</Elements>
		<Elements type="hex8" name="Part2">
			<elem id="1201">2483,2487,2489,2485,2484,2488,2490,2486</elem>
		</Elements>
		<Elements type="hex8" name="Part3">
			<elem id="1202">2491,2495,2497,2493,2492,2496,2498,2494</elem>
		</Elements>
		<NodeSet name="FixedDisplacement01">
			1, 2, 3, 4, 5, 6, 7, 8,
			9, 10, 11, 12, 13, 14, 15, 16,
			17, 18, 19, 20, 21, 22, 23, 24,
			25, 26, 27, 28, 29, 30, 31, 32,
			33, 34, 35, 36, 37, 38, 39, 40,
			41, 42, 43, 44, 45, 46, 47, 48,
			49, 50, 51, 52, 53, 54, 55, 56,
			57, 58, 59, 60, 61, 62, 63, 64,
			65, 66, 67, 68, 69, 70, 71, 72,
			73, 74, 75, 76, 77, 78, 79, 80,
			81, 82, 83, 84, 85, 86, 87, 88,
			89, 90, 91, 92, 93, 94, 95, 96,
			97, 98, 99, 100, 101, 102, 103, 104,
			105, 106, 107, 108, 109, 110, 111, 112,
			113, 114, 115, 116, 117, 118, 119, 120,
			121, 122, 123, 124, 125, 126, 127, 128,
			129, 130, 131, 132, 133, 134, 135, 136,
			137, 138, 139, 140, 141, 142, 143, 144,
			145, 146, 147, 148, 149, 150, 151, 152,
			153, 154, 155, 156, 157, 158, 159, 160,
<!-- ... 291 like lines cut -->
		</NodeSet>
		<NodeSet name="FixedDisplacement02">
			2323, 2324, 2325, 2326, 2327, 2328, 2329, 2330,
			2331, 2332, 2333, 2334, 2335, 2336, 2337, 2338,
			2339, 2340, 2341, 2342, 2343, 2382, 2383, 2384,
			2385, 2386, 2387, 2388, 2389, 2390, 2391, 2392,
			2393, 2394, 2395, 2396, 2397, 2398, 2399, 2400,
			2401, 2402, 2403, 2404, 2405, 2406, 2407, 2408,
			2409, 2410, 2411, 2412, 2413, 2414, 2415, 2416,
			2417, 2418, 2419, 2420, 2421, 2422, 2423, 2462,
			2463, 2464, 2465, 2466, 2467, 2468, 2469, 2470,
			2471, 2472, 2473, 2474, 2475, 2476, 2477, 2478,
			2479, 2480, 2481, 2482
		</NodeSet>
		<Surface name="PrimarySurface01">
			<quad4 id="1">2364,2362,2442,2444</quad4>
			<quad4 id="2">2363,2365,2445,2443</quad4>
			<quad4 id="3">2366,2364,2444,2446</quad4>
			<quad4 id="4">2365,2367,2447,2445</quad4>
			<quad4 id="5">2368,2366,2446,2448</quad4>
			<quad4 id="6">2367,2369,2449,2447</quad4>
			<quad4 id="7">2370,2368,2448,2450</quad4>
			<quad4 id="8">2369,2371,2451,2449</quad4>
			<quad4 id="9">2372,2370,2450,2452</quad4>
			<quad4 id="10">2371,2373,2453,2451</quad4>
			<quad4 id="11">2374,2372,2452,2454</quad4>
			<quad4 id="12">2373,2375,2455,2453</quad4>
			<quad4 id="13">2376,2374,2454,2456</quad4>
			<quad4 id="14">2375,2377,2457,2455</quad4>
			<quad4 id="15">2378,2376,2456,2458</quad4>
			<quad4 id="16">2377,2379,2459,2457</quad4>
			<quad4 id="17">2380,2378,2458,2460</quad4>
			<quad4 id="18">2379,2381,2461,2459</quad4>
			<quad4 id="19">2382,2380,2460,2462</quad4>
			<quad4 id="20">2383,2382,2462,2463</quad4>
<!-- ... 20 like lines cut -->
		</Surface>
		<Surface name="SecondarySurface01">
			<quad4 id="1">2483,2487,2488,2484</quad4>
		</Surface>
		<Surface name="PrimarySurface02">
			<quad4 id="1">2344,2323,2403,2424</quad4>
			<quad4 id="2">2323,2324,2404,2403</quad4>
			<quad4 id="3">2324,2325,2405,2404</quad4>
			<quad4 id="4">2325,2326,2406,2405</quad4>
			<quad4 id="5">2326,2327,2407,2406</quad4>
			<quad4 id="6">2327,2328,2408,2407</quad4>
			<quad4 id="7">2328,2329,2409,2408</quad4>
			<quad4 id="8">2329,2330,2410,2409</quad4>
			<quad4 id="9">2330,2331,2411,2410</quad4>
			<quad4 id="10">2331,2332,2412,2411</quad4>
			<quad4 id="11">2332,2333,2413,2412</quad4>
			<quad4 id="12">2333,2334,2414,2413</quad4>
			<quad4 id="13">2334,2335,2415,2414</quad4>
			<quad4 id="14">2335,2336,2416,2415</quad4>
			<quad4 id="15">2336,2337,2417,2416</quad4>
			<quad4 id="16">2337,2338,2418,2417</quad4>
			<quad4 id="17">2338,2339,2419,2418</quad4>
			<quad4 id="18">2339,2340,2420,2419</quad4>
			<quad4 id="19">2340,2341,2421,2420</quad4>
			<quad4 id="20">2341,2342,2422,2421</quad4>
<!-- ... 20 like lines cut -->
		</Surface>
		<Surface name="SecondarySurface02">
			<quad4 id="1">2497,2493,2494,2498</quad4>
		</Surface>
		<ElementSet name="unnamed_set01">
			191
		</ElementSet>
		<SurfacePair name="TCInterface01">
			<primary>PrimarySurface01</primary>
			<secondary>SecondarySurface01</secondary>
		</SurfacePair>
		<SurfacePair name="TCInterface02">
			<primary>PrimarySurface02</primary>
			<secondary>SecondarySurface02</secondary>
		</SurfacePair>
	</Mesh>
	<MeshDomains>
		<SolidDomain name="Part1" mat="billet"/>
		<SolidDomain name="Part2" mat="top"/>
		<SolidDomain name="Part3" mat="bottom"/>
	</MeshDomains>
	<Boundary>
		<bc name="FixedDisplacement01" node_set="FixedDisplacement01" type="zero displacement">
			<x_dof>0</x_dof>
			<y_dof>0</y_dof>
			<z_dof>1</z_dof>
		</bc>
		<bc name="FixedDisplacement02" node_set="FixedDisplacement02" type="zero displacement">
			<x_dof>1</x_dof>
			<y_dof>0</y_dof>
			<z_dof>0</z_dof>
		</bc>
	</Boundary>
	<Rigid>
		<rigid_bc name="RigidDisplacement22" type="rigid_displacement">
			<rb>top</rb>
			<dof>y</dof>
			<value lc="1">1</value>
			<relative>0</relative>
		</rigid_bc>
		<rigid_bc name="RigidFixed49" type="rigid_fixed">
			<rb>top</rb>
			<Rx_dof>1</Rx_dof>
			<Ry_dof>0</Ry_dof>
			<Rz_dof>1</Rz_dof>
			<Ru_dof>1</Ru_dof>
			<Rv_dof>1</Rv_dof>
			<Rw_dof>1</Rw_dof>
		</rigid_bc>
		<rigid_bc name="RigidFixed50" type="rigid_fixed">
			<rb>bottom</rb>
			<Rx_dof>1</Rx_dof>
			<Ry_dof>0</Ry_dof>
			<Rz_dof>1</Rz_dof>
			<Ru_dof>1</Ru_dof>
			<Rv_dof>1</Rv_dof>
			<Rw_dof>1</Rw_dof>
		</rigid_bc>
		<rigid_bc name="RigidDisplacement23" type="rigid_displacement">
			<rb>bottom</rb>
			<dof>y</dof>
			<value lc="2">1</value>
			<relative>0</relative>
		</rigid_bc>
	</Rigid>
	<Contact>
		<contact name="TCInterface01" surface_pair="TCInterface01" type="sliding-elastic">
			<laugon>AUGLAG</laugon>
			<tolerance>0.2</tolerance>
			<gaptol>0</gaptol>
			<penalty>1</penalty>
			<auto_penalty>1</auto_penalty>
			<update_penalty>0</update_penalty>
			<two_pass>0</two_pass>
			<knmult>0</knmult>
			<search_tol>0.01</search_tol>
			<symmetric_stiffness>0</symmetric_stiffness>
			<search_radius>1</search_radius>
			<seg_up>0</seg_up>
			<tension>0</tension>
			<minaug>0</minaug>
			<maxaug>10</maxaug>
			<node_reloc>0</node_reloc>
			<fric_coeff>0</fric_coeff>
			<smooth_aug>0</smooth_aug>
			<flip_primary>0</flip_primary>
			<flip_secondary>0</flip_secondary>
			<shell_bottom_primary>0</shell_bottom_primary>
			<shell_bottom_secondary>0</shell_bottom_secondary>
			<offset>0</offset>
		</contact>
		<contact name="TCInterface02" surface_pair="TCInterface02" type="sliding-elastic">
			<laugon>AUGLAG</laugon>
			<tolerance>0.2</tolerance>
			<gaptol>0</gaptol>
			<penalty>1</penalty>
			<auto_penalty>1</auto_penalty>
			<update_penalty>0</update_penalty>
			<two_pass>0</two_pass>
			<knmult>0</knmult>
			<search_tol>0.01</search_tol>
			<symmetric_stiffness>0</symmetric_stiffness>
			<search_radius>1</search_radius>
			<seg_up>0</seg_up>
			<tension>0</tension>
			<minaug>0</minaug>
			<maxaug>10</maxaug>
			<node_reloc>0</node_reloc>
			<fric_coeff>0</fric_coeff>
			<smooth_aug>0</smooth_aug>
			<flip_primary>0</flip_primary>
			<flip_secondary>0</flip_secondary>
			<shell_bottom_primary>0</shell_bottom_primary>
			<shell_bottom_secondary>0</shell_bottom_secondary>
			<offset>0</offset>
		</contact>
	</Contact>
	<LoadData>
		<load_controller id="1" name="LC1" type="loadcurve">
			<interpolate>LINEAR</interpolate>
			<extend>CONSTANT</extend>
			<points>
				<pt>0,0</pt>
				<pt>1,-0.6</pt>
			</points>
		</load_controller>
		<load_controller id="2" name="LC2" type="loadcurve">
			<interpolate>LINEAR</interpolate>
			<extend>CONSTANT</extend>
			<points>
				<pt>0,0</pt>
				<pt>1,0.6</pt>
			</points>
		</load_controller>
	</LoadData>
	<Output>
		<plotfile type="febio">
			<var type="displacement"/>
			<var type="stress"/>
		</plotfile>
		<logfile>
			<element_data data="Ex" elem_set="unnamed_set01"/>
		</logfile>
	</Output>
</febio_spec>
