<?xml version="1.0" encoding="ISO-8859-1"?>
<!--
A semispherical body in contact with a block, both consisting of Ogden unconstrained material.
The semispherical body is displaced 0.2 units in the zdirection (into the block) at time t=1.
-->
<febio_spec version="4.0">
	<Module type="solid"/>
	<Globals>
		<Constants>
			<T>0</T>
			<R>0</R>
			<Fc>0</Fc>
		</Constants>
	</Globals>
	<Material>
		<material id="1" name="Material-1" type="Ogden unconstrained">
			<density>1</density>
			<cp>1</cp>
			<c1>0.0329</c1>
			<c2>0</c2>
			<c3>0</c3>
			<c4>0</c4>
			<c5>0</c5>
			<c6>0</c6>
			<m1>6.82</m1>
			<m2>1</m2>
			<m3>1</m3>
			<m4>1</m4>
			<m5>1</m5>
			<m6>1</m6>
		</material>
		<material id="2" name="Material-2" type="rigid body">
			<density>1</density>
			<E>1</E>
			<v>0</v>
			<center_of_mass>0,0,0</center_of_mass>
		</material>
	</Material>
	<Mesh>
		<Nodes name="Object01">
			<node id="1">-0.5,-0.5,0</node>
			<node id="2">-0.5,-0.5,0.1</node>
			<node id="3">-0.5,-0.5,0.2</node>
			<node id="4">-0.5,-0.5,0.3</node>
			<node id="5">-0.5,-0.5,0.4</node>
			<node id="6">-0.5,-0.4,0</node>
			<node id="7">-0.5,-0.4,0.1</node>
			<node id="8">-0.5,-0.4,0.2</node>
			<node id="9">-0.5,-0.4,0.3</node>
			<node id="10">-0.5,-0.4,0.4</node>
			<node id="11">-0.5,-0.3,0</node>
			<node id="12">-0.5,-0.3,0.1</node>
			<node id="13">-0.5,-0.3,0.2</node>
			<node id="14">-0.5,-0.3,0.3</node>
			<node id="15">-0.5,-0.3,0.4</node>
			<node id="16">-0.5,-0.2,0</node>
			<node id="17">-0.5,-0.2,0.1</node>
			<node id="18">-0.5,-0.2,0.2</node>
			<node id="19">-0.5,-0.2,0.3</node>
			<node id="20">-0.5,-0.2,0.4</node>
<!-- ... 1507 like lines cut -->
		</Nodes>
		<Elements type="hex8" name="Part3">
			<elem id="1">1,56,61,6,2,57,62,7</elem>
			<elem id="2">2,57,62,7,3,58,63,8</elem>
			<elem id="3">3,58,63,8,4,59,64,9</elem>
			<elem id="4">4,59,64,9,5,60,65,10</elem>
			<elem id="5">6,61,66,11,7,62,67,12</elem>
			<elem id="6">7,62,67,12,8,63,68,13</elem>
			<elem id="7">8,63,68,13,9,64,69,14</elem>
			<elem id="8">9,64,69,14,10,65,70,15</elem>
			<elem id="9">11,66,71,16,12,67,72,17</elem>
			<elem id="10">12,67,72,17,13,68,73,18</elem>
			<elem id="11">13,68,73,18,14,69,74,19</elem>
			<elem id="12">14,69,74,19,15,70,75,20</elem>
			<elem id="13">16,71,76,21,17,72,77,22</elem>
			<elem id="14">17,72,77,22,18,73,78,23</elem>
			<elem id="15">18,73,78,23,19,74,79,24</elem>
			<elem id="16">19,74,79,24,20,75,80,25</elem>
			<elem id="17">21,76,81,26,22,77,82,27</elem>
			<elem id="18">22,77,82,27,23,78,83,28</elem>
			<elem id="19">23,78,83,28,24,79,84,29</elem>
			<elem id="20">24,79,84,29,25,80,85,30</elem>
<!-- ... 1136 like lines cut -->
		</Elements>
		<NodeSet name="FixedDisplacement01">
			5, 10, 15, 20, 25, 30, 35, 40,
			45, 50, 55, 60, 65, 70, 75, 80,
			85, 90, 95, 100, 105, 110, 115, 120,
			125, 130, 135, 140, 145, 150, 155, 160,
			165, 170, 175, 180, 185, 190, 195, 200,
			205, 210, 215, 220, 225, 230, 235, 240,
			245, 250, 255, 260, 265, 270, 275, 280,
			285, 290, 295, 300, 305, 310, 315, 320,
			325, 330, 335, 340, 345, 350, 355, 360,
			365, 370, 375, 380, 385, 390, 395, 400,
			405, 410, 415, 420, 425, 430, 435, 440,
			445, 450, 455, 460, 465, 470, 475, 480,
			485, 490, 495, 500, 505, 510, 515, 520,
			525, 530, 535, 540, 545, 550, 555, 560,
			565, 570, 575, 580, 585, 590, 595, 600,
			605
		</NodeSet>
		<NodeSet name="FixedDisplacement02">
			5, 10, 15, 20, 25, 30, 35, 40,
			45, 50, 55, 60, 65, 70, 75, 80,
			85, 90, 95, 100, 105, 110, 115, 120,
			125, 130, 135, 140, 145, 150, 155, 160,
			165, 170, 175, 180, 185, 190, 195, 200,
			205, 210, 215, 220, 225, 230, 235, 240,
			245, 250, 255, 260, 265, 270, 275, 280,
			285, 290, 295, 300, 305, 310, 315, 320,
			325, 330, 335, 340, 345, 350, 355, 360,
			365, 370, 375, 380, 385, 390, 395, 400,
			405, 410, 415, 420, 425, 430, 435, 440,
			445, 450, 455, 460, 465, 470, 475, 480,
			485, 490, 495, 500, 505, 510, 515, 520,
			525, 530, 535, 540, 545, 550, 555, 560,
			565, 570, 575, 580, 585, 590, 595, 600,
			605
		</NodeSet>
		<NodeSet name="FixedDisplacement03">
			5, 10, 15, 20, 25, 30, 35, 40,
			45, 50, 55, 60, 65, 70, 75, 80,
			85, 90, 95, 100, 105, 110, 115, 120,
			125, 130, 135, 140, 145, 150, 155, 160,
			165, 170, 175, 180, 185, 190, 195, 200,
			205, 210, 215, 220, 225, 230, 235, 240,
			245, 250, 255, 260, 265, 270, 275, 280,
			285, 290, 295, 300, 305, 310, 315, 320,
			325, 330, 335, 340, 345, 350, 355, 360,
			365, 370, 375, 380, 385, 390, 395, 400,
			405, 410, 415, 420, 425, 430, 435, 440,
			445, 450, 455, 460, 465, 470, 475, 480,
			485, 490, 495, 500, 505, 510, 515, 520,
			525, 530, 535, 540, 545, 550, 555, 560,
			565, 570, 575, 580, 585, 590, 595, 600,
			605
		</NodeSet>
		<NodeSet name="RigidNodeset 1">
			606, 607, 608, 609, 610, 611, 612, 613,
			614, 615, 616, 617, 618, 619, 620, 621,
			622, 623, 624, 625, 626, 627, 628, 629,
			630, 631, 632, 633, 634, 635, 636, 637,
			638, 639, 640, 641, 642, 643, 644, 645,
			646, 647, 648, 649, 650, 651, 652, 653,
			654, 802, 803, 804, 805, 806, 807, 808,
			809, 810, 811, 812, 813, 814, 815, 816,
			817, 818, 819, 820, 821, 822, 823, 824,
			825, 923, 924, 925, 926, 927, 928, 929,
			930, 931, 932, 933, 934, 935, 936, 937,
			938, 939, 940, 941, 942, 943, 944, 945,
			946, 1044, 1045, 1046, 1047, 1048, 1049, 1050,
			1051, 1052, 1053, 1054, 1055, 1056, 1057, 1058,
			1059, 1060, 1061, 1062, 1063, 1064, 1065, 1066,
			1067, 1165, 1166, 1167, 1168, 1169, 1170, 1171,
			1172, 1173, 1174, 1175, 1176, 1177, 1178, 1179,
			1180, 1181, 1182, 1183, 1184, 1185, 1186, 1187,
			1188, 1286, 1287, 1288, 1289, 1290, 1291, 1292,
			1293, 1294, 1295, 1296, 1297, 1298, 1299, 1300,
<!-- ... 5 like lines cut -->
		</NodeSet>
		<Surface name="PrimarySurface01">
			<quad4 id="1">6,61,56,1</quad4>
			<quad4 id="2">11,66,61,6</quad4>
			<quad4 id="3">16,71,66,11</quad4>
			<quad4 id="4">21,76,71,16</quad4>
			<quad4 id="5">26,81,76,21</quad4>
			<quad4 id="6">31,86,81,26</quad4>
			<quad4 id="7">36,91,86,31</quad4>
			<quad4 id="8">41,96,91,36</quad4>
			<quad4 id="9">46,101,96,41</quad4>
			<quad4 id="10">51,106,101,46</quad4>
			<quad4 id="11">61,116,111,56</quad4>
			<quad4 id="12">66,121,116,61</quad4>
			<quad4 id="13">71,126,121,66</quad4>
			<quad4 id="14">76,131,126,71</quad4>
			<quad4 id="15">81,136,131,76</quad4>
			<quad4 id="16">86,141,136,81</quad4>
			<quad4 id="17">91,146,141,86</quad4>
			<quad4 id="18">96,151,146,91</quad4>
			<quad4 id="19">101,156,151,96</quad4>
			<quad4 id="20">106,161,156,101</quad4>
<!-- ... 80 like lines cut -->
		</Surface>
		<Surface name="SecondarySurface01">
			<quad4 id="1">1414,1407,1431,1438</quad4>
			<quad4 id="2">1407,1408,1432,1431</quad4>
			<quad4 id="3">1408,1409,1433,1432</quad4>
			<quad4 id="4">1409,1410,1434,1433</quad4>
			<quad4 id="5">1410,1411,1435,1434</quad4>
			<quad4 id="6">1411,1412,1436,1435</quad4>
			<quad4 id="7">1413,1415,1439,1437</quad4>
			<quad4 id="8">1412,1413,1437,1436</quad4>
			<quad4 id="9">1416,1414,1438,1440</quad4>
			<quad4 id="10">1415,1417,1441,1439</quad4>
			<quad4 id="11">1418,1416,1440,1442</quad4>
			<quad4 id="12">1417,1419,1443,1441</quad4>
			<quad4 id="13">1420,1418,1442,1444</quad4>
			<quad4 id="14">1419,1421,1445,1443</quad4>
			<quad4 id="15">1422,1420,1444,1446</quad4>
			<quad4 id="16">1421,1423,1447,1445</quad4>
			<quad4 id="17">1424,1422,1446,1448</quad4>
			<quad4 id="18">1425,1424,1448,1449</quad4>
			<quad4 id="19">1426,1425,1449,1450</quad4>
			<quad4 id="20">1427,1426,1450,1451</quad4>
<!-- ... 88 like lines cut -->
		</Surface>
		<ElementSet name="unnamed_set01">
			13
		</ElementSet>
		<SurfacePair name="TCInterface01">
			<primary>PrimarySurface01</primary>
			<secondary>SecondarySurface01</secondary>
		</SurfacePair>
	</Mesh>
	<MeshDomains>
		<SolidDomain name="Part3" mat="Material-1"/>
	</MeshDomains>
	<Boundary>
		<bc name="FixedDisplacement01" node_set="FixedDisplacement01" type="zero displacement">
			<x_dof>0</x_dof>
			<y_dof>0</y_dof>
			<z_dof>1</z_dof>
		</bc>
		<bc name="FixedDisplacement02" node_set="FixedDisplacement02" type="zero displacement">
			<x_dof>0</x_dof>
			<y_dof>1</y_dof>
			<z_dof>0</z_dof>
		</bc>
		<bc name="FixedDisplacement03" node_set="FixedDisplacement03" type="zero displacement">
			<x_dof>1</x_dof>
			<y_dof>0</y_dof>
			<z_dof>0</z_dof>
		</bc>
		<bc name="RigidInterface02" node_set="RigidNodeset 1" type="rigid">
			<rb>Material-2</rb>
			<clamp_shells>1</clamp_shells>
		</bc>
	</Boundary>
	<Contact>
		<contact name="TCInterface01" surface_pair="TCInterface01" type="sliding-elastic">
			<laugon>AUGLAG</laugon>
			<tolerance>0.5</tolerance>
			<gaptol>0</gaptol>
			<penalty>1</penalty>
			<auto_penalty>1</auto_penalty>
			<update_penalty>0</update_penalty>
			<two_pass>0</two_pass>
			<knmult>0</knmult>
			<search_tol>0.01</search_tol>
			<symmetric_stiffness>0</symmetric_stiffness>
			<search_radius>1</search_radius>
			<seg_up>0</seg_up>
			<tension>0</tension>
			<minaug>0</minaug>
			<maxaug>10</maxaug>
			<node_reloc>0</node_reloc>
			<fric_coeff>0</fric_coeff>
			<smooth_aug>0</smooth_aug>
			<flip_primary>0</flip_primary>
			<flip_secondary>0</flip_secondary>
			<shell_bottom_primary>0</shell_bottom_primary>
			<shell_bottom_secondary>0</shell_bottom_secondary>
			<offset>0</offset>
		</contact>
	</Contact>
	<Step>
		<step id="1" name="Step01">
			<Control>
				<analysis>STATIC</analysis>
				<time_steps>10</time_steps>
				<step_size>0.1</step_size>
				<plot_zero_state>0</plot_zero_state>
				<plot_range>0,-1</plot_range>
				<plot_level>PLOT_MAJOR_ITRS</plot_level>
				<output_level>OUTPUT_MAJOR_ITRS</output_level>
				<plot_stride>1</plot_stride>
				<adaptor_re_solve>1</adaptor_re_solve>
				<time_stepper type="default">
					<max_retries>5</max_retries>
					<opt_iter>10</opt_iter>
					<dtmin>0.01</dtmin>
					<dtmax>0.1</dtmax>
					<aggressiveness>0</aggressiveness>
					<cutback>0.5</cutback>
					<dtforce>0</dtforce>
				</time_stepper>
				<solver type="solid">
					<symmetric_stiffness>non-symmetric</symmetric_stiffness>
					<equation_scheme>staggered</equation_scheme>
					<equation_order>default</equation_order>
					<optimize_bw>0</optimize_bw>
					<lstol>0.9</lstol>
					<lsmin>0.01</lsmin>
					<lsiter>5</lsiter>
					<max_refs>25</max_refs>
					<check_zero_diagonal>0</check_zero_diagonal>
					<zero_diagonal_tol>0</zero_diagonal_tol>
					<force_partition>0</force_partition>
					<reform_each_time_step>1</reform_each_time_step>
					<reform_augment>0</reform_augment>
					<diverge_reform>1</diverge_reform>
					<min_residual>1e-20</min_residual>
					<max_residual>0</max_residual>
					<dtol>0.001</dtol>
					<etol>0.01</etol>
					<rtol>0</rtol>
					<rhoi>-2</rhoi>
					<alpha>1</alpha>
					<beta>0.25</beta>
					<gamma>0.5</gamma>
					<logSolve>0</logSolve>
					<arc_length>0</arc_length>
					<arc_length_scale>0</arc_length_scale>
					<qn_method type="BFGS">
						<max_ups>0</max_ups>
						<max_buffer_size>0</max_buffer_size>
						<cycle_buffer>1</cycle_buffer>
						<cmax>100000</cmax>
					</qn_method>
				</solver>
			</Control>
			<Rigid>
				<rigid_bc name="RigidDisplacement25" type="rigid_displacement">
					<rb>Material-2</rb>
					<dof>z</dof>
					<value lc="1">1</value>
					<relative>0</relative>
				</rigid_bc>
				<rigid_bc name="RigidFixed52" type="rigid_fixed">
					<rb>Material-2</rb>
					<Rx_dof>1</Rx_dof>
					<Ry_dof>1</Ry_dof>
					<Rz_dof>0</Rz_dof>
					<Ru_dof>1</Ru_dof>
					<Rv_dof>1</Rv_dof>
					<Rw_dof>1</Rw_dof>
				</rigid_bc>
			</Rigid>
		</step>
	</Step>
	<LoadData>
		<load_controller id="1" name="LC1" type="loadcurve">
			<interpolate>LINEAR</interpolate>
			<extend>CONSTANT</extend>
			<points>
				<pt>0,0</pt>
				<pt>1,0.2</pt>
			</points>
		</load_controller>
	</LoadData>
	<Output>
		<plotfile type="febio">
			<var type="displacement"/>
			<var type="stress"/>
		</plotfile>
	</Output>
</febio_spec>
