<?xml version="1.0" encoding="ISO-8859-1"?>
<!--
3D frictional biphasic contact between biphasic cube and rigid plane under cyclical loading and sliding
-->
<febio_spec version="4.0">
	<Module type="biphasic"/>
	<Control>
		<analysis>TRANSIENT</analysis>
		<time_steps>20</time_steps>
		<step_size>0.1</step_size>
		<plot_zero_state>0</plot_zero_state>
		<plot_range>0,-1</plot_range>
		<plot_level>PLOT_MAJOR_ITRS</plot_level>
		<output_level>OUTPUT_MAJOR_ITRS</output_level>
		<plot_stride>1</plot_stride>
		<adaptor_re_solve>1</adaptor_re_solve>
		<time_stepper type="default">
			<max_retries>5</max_retries>
			<opt_iter>20</opt_iter>
			<dtmin>0.01</dtmin>
			<dtmax lc="1">0</dtmax>
			<aggressiveness>0</aggressiveness>
			<cutback>0.5</cutback>
			<dtforce>0</dtforce>
		</time_stepper>
		<solver type="biphasic">
			<symmetric_stiffness>non-symmetric</symmetric_stiffness>
			<equation_scheme>staggered</equation_scheme>
			<equation_order>default</equation_order>
			<optimize_bw>0</optimize_bw>
			<lstol>0.9</lstol>
			<lsmin>0.01</lsmin>
			<lsiter>5</lsiter>
			<max_refs>25</max_refs>
			<check_zero_diagonal>0</check_zero_diagonal>
			<zero_diagonal_tol>0</zero_diagonal_tol>
			<force_partition>0</force_partition>
			<reform_each_time_step>1</reform_each_time_step>
			<reform_augment>0</reform_augment>
			<diverge_reform>1</diverge_reform>
			<min_residual>1e-20</min_residual>
			<max_residual>0</max_residual>
			<dtol>0.001</dtol>
			<etol>0.01</etol>
			<rtol>0</rtol>
			<rhoi>-2</rhoi>
			<alpha>1</alpha>
			<beta>0.25</beta>
			<gamma>0.5</gamma>
			<logSolve>0</logSolve>
			<arc_length>0</arc_length>
			<arc_length_scale>0</arc_length_scale>
			<ptol>0.01</ptol>
			<mixed_formulation>0</mixed_formulation>
			<qn_method type="Broyden">
				<max_ups>0</max_ups>
				<max_buffer_size>0</max_buffer_size>
				<cycle_buffer>1</cycle_buffer>
				<cmax>100000</cmax>
			</qn_method>
		</solver>
	</Control>
	<Globals>
		<Constants>
			<T>0</T>
			<R>0</R>
			<Fc>0</Fc>
		</Constants>
	</Globals>
	<Material>
		<material id="1" name="Biphasic Block" type="biphasic">
			<phi0>0.2</phi0>
			<fluid_density>1</fluid_density>
			<tau>0</tau>
			<solid type="solid mixture">
				<density>1</density>
				<solid type="neo-Hookean">
					<density>1</density>
					<E>2</E>
					<v>0</v>
				</solid>
				<solid type="fiber-exp-pow">
					<density>1</density>
					<alpha>1</alpha>
					<beta>2</beta>
					<ksi>5</ksi>
					<mu>0</mu>
					<lam0>1</lam0>
					<fiber type="angles">
						<theta>0</theta>
						<phi>90</phi>
					</fiber>
				</solid>
			</solid>
			<permeability type="perm-const-iso">
				<perm>0.001</perm>
			</permeability>
		</material>
		<material id="2" name="Rigid Plane" type="rigid body">
			<density>1</density>
			<E>1</E>
			<v>0</v>
			<center_of_mass>0,0.495,0</center_of_mass>
		</material>
	</Material>
	<Mesh>
		<Nodes name="Biphasic Cube">
			<node id="1">-0.5,-0.5,-0.5</node>
			<node id="2">-0.5,-0.5,-0.483870968</node>
			<node id="3">-0.5,-0.5,-0.451612903</node>
			<node id="4">-0.5,-0.5,-0.387096774</node>
			<node id="5">-0.5,-0.5,-0.258064516</node>
			<node id="6">-0.5,-0.5,0</node>
			<node id="7">-0.5,-0.5,0.258064516</node>
			<node id="8">-0.5,-0.5,0.387096774</node>
			<node id="9">-0.5,-0.5,0.451612903</node>
			<node id="10">-0.5,-0.5,0.483870968</node>
			<node id="11">-0.5,-0.5,0.5</node>
			<node id="12">-0.5,-0.483870968,-0.5</node>
			<node id="13">-0.5,-0.483870968,-0.483870968</node>
			<node id="14">-0.5,-0.483870968,-0.451612903</node>
			<node id="15">-0.5,-0.483870968,-0.387096774</node>
			<node id="16">-0.5,-0.483870968,-0.258064516</node>
			<node id="17">-0.5,-0.483870968,0</node>
			<node id="18">-0.5,-0.483870968,0.258064516</node>
			<node id="19">-0.5,-0.483870968,0.387096774</node>
			<node id="20">-0.5,-0.483870968,0.451612903</node>
<!-- ... 1311 like lines cut -->
		</Nodes>
		<Nodes name="Rigid Plane">
			<node id="1332">-1.5,0.49899996,-1.5</node>
			<node id="1333">-1.5,0.49900004,1.5</node>
			<node id="1334">1.5,0.49899996,-1.5</node>
			<node id="1335">1.5,0.49900004,1.5</node>
		</Nodes>
		<Elements type="hex8" name="Part1">
			<elem id="1">1,122,133,12,2,123,134,13</elem>
			<elem id="2">2,123,134,13,3,124,135,14</elem>
			<elem id="3">3,124,135,14,4,125,136,15</elem>
			<elem id="4">4,125,136,15,5,126,137,16</elem>
			<elem id="5">5,126,137,16,6,127,138,17</elem>
			<elem id="6">6,127,138,17,7,128,139,18</elem>
			<elem id="7">7,128,139,18,8,129,140,19</elem>
			<elem id="8">8,129,140,19,9,130,141,20</elem>
			<elem id="9">9,130,141,20,10,131,142,21</elem>
			<elem id="10">10,131,142,21,11,132,143,22</elem>
			<elem id="11">12,133,144,23,13,134,145,24</elem>
			<elem id="12">13,134,145,24,14,135,146,25</elem>
			<elem id="13">14,135,146,25,15,136,147,26</elem>
			<elem id="14">15,136,147,26,16,137,148,27</elem>
			<elem id="15">16,137,148,27,17,138,149,28</elem>
			<elem id="16">17,138,149,28,18,139,150,29</elem>
			<elem id="17">18,139,150,29,19,140,151,30</elem>
			<elem id="18">19,140,151,30,20,141,152,31</elem>
			<elem id="19">20,141,152,31,21,142,153,32</elem>
			<elem id="20">21,142,153,32,22,143,154,33</elem>
<!-- ... 980 like lines cut -->
		</Elements>
		<Elements type="quad4" name="Part8">
			<elem id="1001">1332,1334,1335,1333</elem>
		</Elements>
		<Surface name="FixedDisplacement01">
			<quad4 id="1">1,122,123,2</quad4>
			<quad4 id="2">2,123,124,3</quad4>
			<quad4 id="3">3,124,125,4</quad4>
			<quad4 id="4">4,125,126,5</quad4>
			<quad4 id="5">5,126,127,6</quad4>
			<quad4 id="6">6,127,128,7</quad4>
			<quad4 id="7">7,128,129,8</quad4>
			<quad4 id="8">8,129,130,9</quad4>
			<quad4 id="9">9,130,131,10</quad4>
			<quad4 id="10">10,131,132,11</quad4>
			<quad4 id="11">122,243,244,123</quad4>
			<quad4 id="12">123,244,245,124</quad4>
			<quad4 id="13">124,245,246,125</quad4>
			<quad4 id="14">125,246,247,126</quad4>
			<quad4 id="15">126,247,248,127</quad4>
			<quad4 id="16">127,248,249,128</quad4>
			<quad4 id="17">128,249,250,129</quad4>
			<quad4 id="18">129,250,251,130</quad4>
			<quad4 id="19">130,251,252,131</quad4>
			<quad4 id="20">131,252,253,132</quad4>
<!-- ... 80 like lines cut -->
		</Surface>
		<Surface name="FixedFluidPressure01">
			<quad4 id="1">1211,1222,1223,1212</quad4>
			<quad4 id="2">1212,1223,1224,1213</quad4>
			<quad4 id="3">1213,1224,1225,1214</quad4>
			<quad4 id="4">1214,1225,1226,1215</quad4>
			<quad4 id="5">1215,1226,1227,1216</quad4>
			<quad4 id="6">1216,1227,1228,1217</quad4>
			<quad4 id="7">1217,1228,1229,1218</quad4>
			<quad4 id="8">1218,1229,1230,1219</quad4>
			<quad4 id="9">1219,1230,1231,1220</quad4>
			<quad4 id="10">1220,1231,1232,1221</quad4>
			<quad4 id="11">1222,1233,1234,1223</quad4>
			<quad4 id="12">1223,1234,1235,1224</quad4>
			<quad4 id="13">1224,1235,1236,1225</quad4>
			<quad4 id="14">1225,1236,1237,1226</quad4>
			<quad4 id="15">1226,1237,1238,1227</quad4>
			<quad4 id="16">1227,1238,1239,1228</quad4>
			<quad4 id="17">1228,1239,1240,1229</quad4>
			<quad4 id="18">1229,1240,1241,1230</quad4>
			<quad4 id="19">1230,1241,1242,1231</quad4>
			<quad4 id="20">1231,1242,1243,1232</quad4>
<!-- ... 380 like lines cut -->
		</Surface>
		<Surface name="BiphasicContact01_primary">
			<quad4 id="1">1321,1200,1201,1322</quad4>
			<quad4 id="2">1322,1201,1202,1323</quad4>
			<quad4 id="3">1323,1202,1203,1324</quad4>
			<quad4 id="4">1324,1203,1204,1325</quad4>
			<quad4 id="5">1325,1204,1205,1326</quad4>
			<quad4 id="6">1326,1205,1206,1327</quad4>
			<quad4 id="7">1327,1206,1207,1328</quad4>
			<quad4 id="8">1328,1207,1208,1329</quad4>
			<quad4 id="9">1329,1208,1209,1330</quad4>
			<quad4 id="10">1330,1209,1210,1331</quad4>
			<quad4 id="11">1200,1079,1080,1201</quad4>
			<quad4 id="12">1201,1080,1081,1202</quad4>
			<quad4 id="13">1202,1081,1082,1203</quad4>
			<quad4 id="14">1203,1082,1083,1204</quad4>
			<quad4 id="15">1204,1083,1084,1205</quad4>
			<quad4 id="16">1205,1084,1085,1206</quad4>
			<quad4 id="17">1206,1085,1086,1207</quad4>
			<quad4 id="18">1207,1086,1087,1208</quad4>
			<quad4 id="19">1208,1087,1088,1209</quad4>
			<quad4 id="20">1209,1088,1089,1210</quad4>
<!-- ... 80 like lines cut -->
		</Surface>
		<Surface name="BiphasicContact01_secondary">
			<quad4 id="1">1332,1334,1335,1333</quad4>
		</Surface>
		<SurfacePair name="BiphasicContact01">
			<primary>BiphasicContact01_primary</primary>
			<secondary>BiphasicContact01_secondary</secondary>
		</SurfacePair>
	</Mesh>
	<MeshDomains>
		<SolidDomain name="Part1" mat="Biphasic Block"/>
		<ShellDomain name="Part8" mat="Rigid Plane" type="rigid-shell">
			<shell_thickness>0</shell_thickness>
			<shell_normal_nodal>1</shell_normal_nodal>
		</ShellDomain>
	</MeshDomains>
	<MeshData>
		<ElementData type="shell thickness" elem_set="Part8">
			<e lid="1">0.01,0.01,0.01,0.01</e>
		</ElementData>
	</MeshData>
	<Boundary>
		<bc name="FixedDisplacement01" node_set="@surface:FixedDisplacement01" type="zero displacement">
			<x_dof>1</x_dof>
			<y_dof>1</y_dof>
			<z_dof>1</z_dof>
		</bc>
		<bc name="FixedFluidPressure01" node_set="@surface:FixedFluidPressure01" type="zero fluid pressure"/>
	</Boundary>
	<Rigid>
		<rigid_bc name="RigidFixed02" type="rigid_fixed">
			<rb>Rigid Plane</rb>
			<Rx_dof>0</Rx_dof>
			<Ry_dof>0</Ry_dof>
			<Rz_dof>0</Rz_dof>
			<Ru_dof>1</Ru_dof>
			<Rv_dof>1</Rv_dof>
			<Rw_dof>1</Rw_dof>
		</rigid_bc>
		<rigid_bc name="Rigid plane X-displacement" type="rigid_displacement">
			<rb>Rigid Plane</rb>
			<dof>x</dof>
			<value lc="2">1</value>
			<relative>0</relative>
		</rigid_bc>
		<rigid_bc name="Rigid Plane Z-displacement" type="rigid_displacement">
			<rb>Rigid Plane</rb>
			<dof>z</dof>
			<value lc="4">1</value>
			<relative>0</relative>
		</rigid_bc>
		<rigid_load name="Rigid Force" type="rigid_force">
			<rb>Rigid Plane</rb>
			<dof>Ry</dof>
			<value lc="3">5</value>
			<load_type>LOAD</load_type>
			<relative>0</relative>
		</rigid_load>
	</Rigid>
	<Contact>
		<contact name="BiphasicContact01" surface_pair="BiphasicContact01" type="sliding-biphasic">
			<laugon>PENALTY</laugon>
			<tolerance>0.2</tolerance>
			<gaptol>0</gaptol>
			<ptol>0</ptol>
			<penalty>1</penalty>
			<auto_penalty>1</auto_penalty>
			<update_penalty>0</update_penalty>
			<two_pass>0</two_pass>
			<knmult>0</knmult>
			<search_tol>0.01</search_tol>
			<pressure_penalty>1</pressure_penalty>
			<symmetric_stiffness>0</symmetric_stiffness>
			<search_radius>1</search_radius>
			<seg_up>0</seg_up>
			<minaug>0</minaug>
			<maxaug>10</maxaug>
			<node_reloc>0</node_reloc>
			<fric_coeff>0.1</fric_coeff>
			<contact_frac>0.2</contact_frac>
			<smooth_aug>0</smooth_aug>
			<smooth_fls>0</smooth_fls>
			<flip_primary>0</flip_primary>
			<flip_secondary>0</flip_secondary>
			<shell_bottom_primary>0</shell_bottom_primary>
			<shell_bottom_secondary>0</shell_bottom_secondary>
		</contact>
	</Contact>
	<LoadData>
		<load_controller id="1" name="LC1" type="loadcurve">
			<interpolate>STEP</interpolate>
			<extend>REPEAT</extend>
			<points>
				<pt>0,0</pt>
				<pt>1,0.1</pt>
				<pt>2,0.1</pt>
				<pt>3,0.1</pt>
				<pt>4,0.1</pt>
			</points>
		</load_controller>
		<load_controller id="2" name="LC2" type="loadcurve">
			<interpolate>LINEAR</interpolate>
			<extend>REPEAT</extend>
			<points>
				<pt>0,0</pt>
				<pt>1,0.5</pt>
				<pt>2,0</pt>
				<pt>3,-0.5</pt>
				<pt>4,0</pt>
			</points>
		</load_controller>
		<load_controller id="3" name="LC3" type="loadcurve">
			<interpolate>SMOOTH</interpolate>
			<extend>REPEAT</extend>
			<points>
				<pt>0,-0.02</pt>
				<pt>0.02,-0.0201577059737</pt>
				<pt>0.04,-0.0206283367774</pt>
				<pt>0.06,-0.0214044702822</pt>
				<pt>0.08,-0.0224738663991</pt>
				<pt>0.1,-0.0238196601125</pt>
				<pt>0.12,-0.0254206274516</pt>
				<pt>0.14,-0.027251520205</pt>
				<pt>0.16,-0.0292834641004</pt>
				<pt>0.18,-0.0314844141687</pt>
				<pt>0.2,-0.0338196601125</pt>
				<pt>0.22,-0.0362523737083</pt>
				<pt>0.24,-0.0387441896094</pt>
				<pt>0.26,-0.0412558103906</pt>
				<pt>0.28,-0.0437476262917</pt>
				<pt>0.3,-0.0461803398875</pt>
				<pt>0.32,-0.0485155858313</pt>
				<pt>0.34,-0.0507165358996</pt>
				<pt>0.36,-0.052748479795</pt>
				<pt>0.38,-0.0545793725484</pt>
<!-- ... 31 like lines cut -->
			</points>
		</load_controller>
		<load_controller id="4" name="LC4" type="loadcurve">
			<interpolate>LINEAR</interpolate>
			<extend>REPEAT</extend>
			<points>
				<pt>0,0</pt>
				<pt>0.5,-0.5</pt>
				<pt>1,0</pt>
				<pt>1.5,0.5</pt>
				<pt>2,0</pt>
			</points>
		</load_controller>
	</LoadData>
	<Output>
		<plotfile type="febio">
			<var type="contact area"/>
			<var type="contact force"/>
			<var type="contact gap"/>
			<var type="contact pressure"/>
			<var type="contact traction"/>
			<var type="displacement"/>
			<var type="reaction forces"/>
			<var type="relative volume"/>
			<var type="stress"/>
			<var type="effective fluid pressure"/>
			<var type="fluid pressure"/>
			<var type="fluid flux"/>
			<var type="fluid force"/>
		</plotfile>
	</Output>
</febio_spec>
