<?xml version="1.0" encoding="ISO-8859-1"?>
<!--
Two blocks of four elements each are connected by a nodal spring on the center nodes of their
mutually facing sides.  The nodes on the left face of the left block are constained in the x, y,
and z directions.  The nodes on the right side of the right block have a prescribed displacement
of one unit in the xdirection in time t=1.
-->
<febio_spec version="4.0">
	<Module type="solid"/>
	<Control>
		<analysis>STATIC</analysis>
		<time_steps>10</time_steps>
		<step_size>0.1</step_size>
		<plot_zero_state>0</plot_zero_state>
		<plot_range>0,-1</plot_range>
		<plot_level>PLOT_MAJOR_ITRS</plot_level>
		<output_level>OUTPUT_MAJOR_ITRS</output_level>
		<plot_stride>1</plot_stride>
		<adaptor_re_solve>1</adaptor_re_solve>
		<time_stepper type="default">
			<max_retries>5</max_retries>
			<opt_iter>10</opt_iter>
			<dtmin>0.01</dtmin>
			<dtmax>0.1</dtmax>
			<aggressiveness>0</aggressiveness>
			<cutback>0.5</cutback>
			<dtforce>0</dtforce>
		</time_stepper>
		<solver type="solid">
			<symmetric_stiffness>symmetric</symmetric_stiffness>
			<equation_scheme>staggered</equation_scheme>
			<equation_order>default</equation_order>
			<optimize_bw>0</optimize_bw>
			<lstol>0.9</lstol>
			<lsmin>0.01</lsmin>
			<lsiter>5</lsiter>
			<max_refs>15</max_refs>
			<check_zero_diagonal>0</check_zero_diagonal>
			<zero_diagonal_tol>0</zero_diagonal_tol>
			<force_partition>0</force_partition>
			<reform_each_time_step>1</reform_each_time_step>
			<reform_augment>0</reform_augment>
			<diverge_reform>1</diverge_reform>
			<min_residual>1e-20</min_residual>
			<max_residual>0</max_residual>
			<dtol>0.001</dtol>
			<etol>0.01</etol>
			<rtol>0</rtol>
			<rhoi>-2</rhoi>
			<alpha>1</alpha>
			<beta>0.25</beta>
			<gamma>0.5</gamma>
			<logSolve>0</logSolve>
			<arc_length>0</arc_length>
			<arc_length_scale>0</arc_length_scale>
			<qn_method type="BFGS">
				<max_ups>10</max_ups>
				<max_buffer_size>0</max_buffer_size>
				<cycle_buffer>1</cycle_buffer>
				<cmax>100000</cmax>
			</qn_method>
		</solver>
	</Control>
	<Globals>
		<Constants>
			<T>0</T>
			<R>0</R>
			<Fc>0</Fc>
		</Constants>
	</Globals>
	<Material>
		<material id="1" name="Material 1" type="neo-Hookean">
			<density>1</density>
			<E>1</E>
			<v>0.3</v>
		</material>
	</Material>
	<Mesh>
		<Nodes name="Object01">
			<node id="1">1.5,-0.5,0</node>
			<node id="2">1.5,-0.5,0.5</node>
			<node id="3">1.5,-0.5,1</node>
			<node id="4">1.5,0,0</node>
			<node id="5">1.5,0,0.5</node>
			<node id="6">1.5,0,1</node>
			<node id="7">1.5,0.5,0</node>
			<node id="8">1.5,0.5,0.5</node>
			<node id="9">1.5,0.5,1</node>
			<node id="10">2,-0.5,0</node>
			<node id="11">2,-0.5,0.5</node>
			<node id="12">2,-0.5,1</node>
			<node id="13">2,0,0</node>
			<node id="14">2,0,0.5</node>
			<node id="15">2,0,1</node>
			<node id="16">2,0.5,0</node>
			<node id="17">2,0.5,0.5</node>
			<node id="18">2,0.5,1</node>
			<node id="19">2.5,-0.5,0</node>
			<node id="20">2.5,-0.5,0.5</node>
<!-- ... 34 like lines cut -->
		</Nodes>
		<Elements type="hex8" name="Part1">
			<elem id="1">1,10,13,4,2,11,14,5</elem>
			<elem id="2">2,11,14,5,3,12,15,6</elem>
			<elem id="3">4,13,16,7,5,14,17,8</elem>
			<elem id="4">5,14,17,8,6,15,18,9</elem>
			<elem id="5">10,19,22,13,11,20,23,14</elem>
			<elem id="6">11,20,23,14,12,21,24,15</elem>
			<elem id="7">13,22,25,16,14,23,26,17</elem>
			<elem id="8">14,23,26,17,15,24,27,18</elem>
			<elem id="9">28,37,40,31,29,38,41,32</elem>
			<elem id="10">29,38,41,32,30,39,42,33</elem>
			<elem id="11">31,40,43,34,32,41,44,35</elem>
			<elem id="12">32,41,44,35,33,42,45,36</elem>
			<elem id="13">37,46,49,40,38,47,50,41</elem>
			<elem id="14">38,47,50,41,39,48,51,42</elem>
			<elem id="15">40,49,52,43,41,50,53,44</elem>
			<elem id="16">41,50,53,44,42,51,54,45</elem>
		</Elements>
		<NodeSet name="FixedDisplacement01">
			1, 4, 7, 10, 13, 16, 19, 22,
			25, 28, 29, 30, 31, 32, 33, 34,
			35, 36
		</NodeSet>
		<NodeSet name="FixedDisplacement02">
			1, 2, 3, 10, 11, 12, 19, 20,
			21, 28, 29, 30, 31, 32, 33, 34,
			35, 36
		</NodeSet>
		<NodeSet name="FixedDisplacement03">
			28, 29, 30, 31, 32, 33, 34, 35,
			36
		</NodeSet>
		<NodeSet name="PrescribedBC87">
			19, 20, 21, 22, 23, 24, 25, 26,
			27
		</NodeSet>
		<ElementSet name="unnamed_set01">
			1
		</ElementSet>
		<DiscreteSet name="Spring01">
			<delem>50,5</delem>
		</DiscreteSet>
	</Mesh>
	<MeshDomains>
		<SolidDomain name="Part1" mat="Material 1"/>
	</MeshDomains>
	<Boundary>
		<bc name="FixedDisplacement01" node_set="FixedDisplacement01" type="zero displacement">
			<x_dof>0</x_dof>
			<y_dof>0</y_dof>
			<z_dof>1</z_dof>
		</bc>
		<bc name="FixedDisplacement02" node_set="FixedDisplacement02" type="zero displacement">
			<x_dof>0</x_dof>
			<y_dof>1</y_dof>
			<z_dof>0</z_dof>
		</bc>
		<bc name="FixedDisplacement03" node_set="FixedDisplacement03" type="zero displacement">
			<x_dof>1</x_dof>
			<y_dof>0</y_dof>
			<z_dof>0</z_dof>
		</bc>
		<bc name="PrescribedBC87" node_set="PrescribedBC87" type="prescribed displacement">
			<dof>x</dof>
			<value lc="1">1</value>
			<relative>0</relative>
		</bc>
	</Boundary>
	<Discrete>
		<discrete_material id="1" name="Spring01" type="linear spring">
			<E>1</E>
		</discrete_material>
		<discrete dmat="1" discrete_set="Spring01"/>
	</Discrete>
	<LoadData>
		<load_controller id="1" name="LC1" type="loadcurve">
			<interpolate>LINEAR</interpolate>
			<extend>CONSTANT</extend>
			<points>
				<pt>0,0</pt>
				<pt>1,1</pt>
			</points>
		</load_controller>
	</LoadData>
	<Output>
		<plotfile type="febio">
			<var type="displacement"/>
			<var type="stress"/>
		</plotfile>
		<logfile>
			<element_data data="Ey" elem_set="unnamed_set01"/>
		</logfile>
	</Output>
</febio_spec>
