<?xml version="1.0" encoding="ISO-8859-1"?>
<!--
This file was created with FEBio Studio version 1.0.1
-->
<febio_spec version="4.0">
	<Module type="solid"/>
	<Control>
		<analysis>STATIC</analysis>
		<time_steps>50</time_steps>
		<!-- <time_steps>125</time_steps> -->
		<step_size>0.1</step_size>
		<plot_zero_state>0</plot_zero_state>
		<plot_range>0,-1</plot_range>
		<plot_level>PLOT_MAJOR_ITRS</plot_level>
		<output_level>OUTPUT_MAJOR_ITRS</output_level>
		<plot_stride>10</plot_stride>
		<adaptor_re_solve>1</adaptor_re_solve>
		<time_stepper type="default">
			<max_retries>5</max_retries>
			<opt_iter>10</opt_iter>
			<dtmin>0.05</dtmin>
			<dtmax>0.1</dtmax>
			<aggressiveness>0</aggressiveness>
			<cutback>0.5</cutback>
			<dtforce>0</dtforce>
		</time_stepper>
		<solver type="solid">
			<symmetric_stiffness>symmetric</symmetric_stiffness>
			<equation_scheme>staggered</equation_scheme>
			<equation_order>default</equation_order>
			<optimize_bw>0</optimize_bw>
			<lstol>0.9</lstol>
			<lsmin>0.01</lsmin>
			<lsiter>5</lsiter>
			<max_refs>15</max_refs>
			<check_zero_diagonal>0</check_zero_diagonal>
			<zero_diagonal_tol>0</zero_diagonal_tol>
			<force_partition>0</force_partition>
			<reform_each_time_step>1</reform_each_time_step>
			<reform_augment>0</reform_augment>
			<diverge_reform>1</diverge_reform>
			<min_residual>1e-20</min_residual>
			<max_residual>0</max_residual>
			<dtol>0.001</dtol>
			<etol>0.01</etol>
			<rtol>0</rtol>
			<rhoi>0</rhoi>
			<alpha>1</alpha>
			<beta>0.25</beta>
			<gamma>0.5</gamma>
			<logSolve>0</logSolve>
			<arc_length>0</arc_length>
			<arc_length_scale>0</arc_length_scale>
			<qn_method type="BFGS">
				<max_ups>10</max_ups>
				<max_buffer_size>0</max_buffer_size>
				<cycle_buffer>1</cycle_buffer>
				<cmax>100000</cmax>
			</qn_method>
		</solver>
	</Control>
	<Globals>
		<Constants>
			<T>0</T>
			<R>0</R>
			<Fc>0</Fc>
		</Constants>
	</Globals>
	<Material>
		<material id="1" name="Material1" type="uncoupled elastic damage">
			<density>1</density>
			<k>1000</k>
			<pressure_model>default</pressure_model>
			<elastic type="trans iso Veronda-Westmann">
				<density>1</density>
				<k>0</k>
				<pressure_model>default</pressure_model>
				<c1>0.3826</c1>
				<c2>3.1038</c2>
				<c3>0.5142</c3>
				<c4>40.3598</c4>
				<c5>150.3812</c5>
				<lam_max>1.05885</lam_max>
				<fiber type="angles">
					<theta>0</theta>
					<phi>0</phi>
				</fiber>
			</elastic>
			<damage type="CDF quintic">
				<Dmax>0.700353</Dmax>
				<mumin>0.046163</mumin>
				<mumax>0.706487</mumax>
			</damage>
			<criterion type="DC strain energy density"/>
		</material>
		<material id="2" name="Material2" type="rigid body">
			<density>1</density>
			<E>1</E>
			<v>0</v>
			<center_of_mass>0.5,0.125,5.67037</center_of_mass>
		</material>
	</Material>
	<Mesh>
		<Nodes name="Object01">
			<node id="1">0.4,-0.049999907,2.4</node>
			<node id="2">0.4,-0.049999843,-1.3397425e-09</node>
			<node id="3">0,-0.049999843,-1.3397425e-09</node>
			<node id="4">0,-0.049999907,2.4</node>
			<node id="5">0.4,0.35000009,2.4</node>
			<node id="6">0.4,0.35000016,9.3782155e-09</node>
			<node id="7">0,0.35000016,9.3782155e-09</node>
			<node id="8">0,0.35000009,2.4</node>
			<node id="9">0.99741729,-0.049999995,5.6703689</node>
			<node id="10">0.77771168,-0.049999977,5.0162951</node>
			<node id="11">0.61052062,-0.049999959,4.3622213</node>
			<node id="12">0.49296718,-0.049999942,3.7081475</node>
			<node id="13">0.42315398,-0.049999924,3.0540738</node>
			<node id="14">0.4,0.15000009,2.4</node>
			<node id="15">0.42315398,0.35000008,3.0540738</node>
			<node id="16">0.49296718,0.35000006,3.7081476</node>
			<node id="17">0.61052062,0.35000004,4.3622213</node>
			<node id="18">0.77771168,0.35000002,5.0162951</node>
			<node id="19">0.99741729,0.35000001,5.6703689</node>
			<node id="20">0.3,-0.049999907,2.4</node>
<!-- ... 1708 like lines cut -->
		</Nodes>
		<Elements type="tet4" name="Part1">
			<elem id="1">30,527,532,529</elem>
			<elem id="2">31,73,139,532</elem>
			<elem id="3">31,529,532,527</elem>
			<elem id="4">31,73,532,529</elem>
			<elem id="5">30,532,527,531</elem>
			<elem id="6">139,86,31,532</elem>
			<elem id="7">86,531,31,532</elem>
			<elem id="8">532,527,531,31</elem>
			<elem id="9">528,617,618,72</elem>
			<elem id="10">30,529,532,528</elem>
			<elem id="11">529,617,618,528</elem>
			<elem id="12">618,532,529,528</elem>
			<elem id="13">73,529,617,618</elem>
			<elem id="14">73,532,618,139</elem>
			<elem id="15">73,529,618,532</elem>
			<elem id="16">30,532,533,528</elem>
			<elem id="17">532,139,833,618</elem>
			<elem id="18">142,533,833,619</elem>
			<elem id="19">528,618,619,72</elem>
			<elem id="20">532,618,533,528</elem>
<!-- ... 8100 like lines cut -->
		</Elements>
		<Elements type="quad4" name="Part3">
			<elem id="8121">1725,1727,1728,1726</elem>
		</Elements>
		<NodeSet name="FixedDisplacement1">
			3, 4, 7, 8, 23, 27, 28, 29,
			30, 31, 32, 33, 34, 35, 36, 49,
			53, 54, 55, 56, 57, 58, 59, 60,
			69, 70, 71, 72, 73, 111, 112, 113,
			114, 178, 179, 180, 182, 184, 199, 201,
			202, 204, 206, 271, 272, 302, 303, 304,
			309, 310, 311, 316, 317, 320, 321, 322,
			327, 348, 351, 500, 501, 502, 503, 508,
			509, 510, 511, 516, 517, 518, 523, 524,
			527, 528, 529, 534, 535, 538, 539, 540,
			545, 548, 549, 552, 553, 554, 555, 560,
			561, 562, 592, 593, 594, 595, 596, 597,
			598, 601, 602, 603, 604, 605, 606, 609,
			612, 614, 615, 617, 989, 993, 1015, 1018,
			1229, 1232, 1236, 1239, 1243, 1244, 1271, 1274,
			1277, 1281, 1301, 1304, 1309, 1311, 1325, 1328,
			1332, 1335, 1337, 1342
		</NodeSet>
		<NodeSet name="FixedDisplacement2">
			5, 6, 7, 8, 15, 16, 17, 18,
			19, 24, 25, 26, 32, 33, 34, 35,
			36, 42, 43, 44, 45, 50, 51, 52,
			57, 58, 59, 60, 89, 90, 91, 92,
			93, 94, 95, 96, 97, 98, 99, 100,
			101, 102, 103, 127, 128, 129, 130, 131,
			132, 133, 134, 135, 136, 137, 138, 189,
			190, 191, 194, 196, 200, 201, 202, 205,
			207, 229, 232, 233, 236, 239, 240, 275,
			278, 279, 280, 281, 286, 289, 290, 291,
			292, 298, 299, 316, 318, 320, 323, 324,
			328, 388, 389, 392, 393, 396, 398, 399,
			400, 405, 406, 407, 412, 415, 418, 467,
			468, 471, 472, 475, 476, 479, 480, 483,
			486, 487, 490, 493, 496, 497, 534, 536,
			538, 541, 542, 546, 548, 550, 552, 553,
			556, 557, 560, 561, 563, 728, 729, 732,
			733, 736, 738, 739, 740, 745, 746, 747,
			752, 755, 758, 760, 761, 764, 767, 769,
			770, 773, 776, 777, 779, 781, 782, 783,
<!-- ... 11 like lines cut -->
		</NodeSet>
		<NodeSet name="FixedDisplacement3">
			2, 3, 6, 7, 41, 46, 47, 48,
			49, 50, 51, 52, 108, 109, 110
		</NodeSet>
		<Surface name="Sliding-elasticContact1_slave">
			<tri3 id="1">31,139,73</tri3>
			<tri3 id="2">139,31,86</tri3>
			<tri3 id="3">86,140,139</tri3>
			<tri3 id="4">86,87,140</tri3>
			<tri3 id="5">87,141,140</tri3>
			<tri3 id="6">87,88,141</tri3>
			<tri3 id="7">9,141,88</tri3>
			<tri3 id="8">9,61,141</tri3>
			<tri3 id="9">32,73,139</tri3>
			<tri3 id="10">32,139,89</tri3>
			<tri3 id="11">89,139,140</tri3>
			<tri3 id="12">89,140,90</tri3>
			<tri3 id="13">90,140,141</tri3>
			<tri3 id="14">90,141,91</tri3>
			<tri3 id="15">141,19,91</tri3>
			<tri3 id="16">61,19,141</tri3>
		</Surface>
		<Surface name="Sliding-elasticContact1_master">
			<quad4 id="1">1725,1727,1728,1726</quad4>
		</Surface>
		<SurfacePair name="Sliding-elasticContact1">
			<primary>Sliding-elasticContact1_slave</primary>
			<secondary>Sliding-elasticContact1_master</secondary>
		</SurfacePair>
	</Mesh>
	<MeshDomains>
		<SolidDomain name="Part1" mat="Material1"/>
		<ShellDomain name="Part3" mat="Material2" type="rigid-shell">
			<shell_thickness>0</shell_thickness>
			<shell_normal_nodal>1</shell_normal_nodal>
		</ShellDomain>
	</MeshDomains>
	<MeshData>
		<ElementData type="shell thickness" elem_set="Part3">
			<e lid="1">0.01,0.01,0.01,0.01</e>
		</ElementData>
	</MeshData>
	<Boundary>
		<bc name="FixedDisplacement01" node_set="FixedDisplacement1" type="zero displacement">
			<x_dof>1</x_dof>
			<y_dof>0</y_dof>
			<z_dof>0</z_dof>
		</bc>
		<bc name="FixedDisplacement02" node_set="FixedDisplacement2" type="zero displacement">
			<x_dof>0</x_dof>
			<y_dof>1</y_dof>
			<z_dof>0</z_dof>
		</bc>
		<bc name="FixedDisplacement03" node_set="FixedDisplacement3" type="zero displacement">
			<x_dof>0</x_dof>
			<y_dof>0</y_dof>
			<z_dof>1</z_dof>
		</bc>
	</Boundary>
	<Rigid>
		<rigid_bc name="RigidFixed01" type="rigid_fixed">
			<rb>Material2</rb>
			<Rx_dof>1</Rx_dof>
			<Ry_dof>1</Ry_dof>
			<Rz_dof>0</Rz_dof>
			<Ru_dof>1</Ru_dof>
			<Rv_dof>1</Rv_dof>
			<Rw_dof>1</Rw_dof>
		</rigid_bc>
		<rigid_bc name="RigidDisplacement01" type="rigid_displacement">
			<rb>Material2</rb>
			<dof>z</dof>
			<value lc="1">5.67037</value>
			<relative>0</relative>
		</rigid_bc>
	</Rigid>
	<Contact>
		<contact name="Sliding-elasticContact1" surface_pair="Sliding-elasticContact1" type="sliding-elastic">
			<laugon>PENALTY</laugon>
			<tolerance>0.2</tolerance>
			<gaptol>0</gaptol>
			<penalty>100000</penalty>
			<auto_penalty>1</auto_penalty>
			<update_penalty>0</update_penalty>
			<two_pass>0</two_pass>
			<knmult>0</knmult>
			<search_tol>0.01</search_tol>
			<symmetric_stiffness>0</symmetric_stiffness>
			<search_radius>1</search_radius>
			<seg_up>0</seg_up>
			<tension>1</tension>
			<minaug>0</minaug>
			<maxaug>10</maxaug>
			<node_reloc>0</node_reloc>
			<fric_coeff>0</fric_coeff>
			<smooth_aug>0</smooth_aug>
			<flip_primary>0</flip_primary>
			<flip_secondary>0</flip_secondary>
			<shell_bottom_primary>0</shell_bottom_primary>
			<shell_bottom_secondary>0</shell_bottom_secondary>
			<offset>0</offset>
		</contact>
	</Contact>
	<LoadData>
		<load_controller id="1" name="LC1" type="loadcurve">
			<interpolate>SMOOTH</interpolate>
			<extend>CONSTANT</extend>
			<points>
				<pt>0,0</pt>
				<pt>19.25,0.1948</pt>
			</points>
		</load_controller>
	</LoadData>
	<Output>
		<plotfile type="febio">
			<var type="damage"/>
			<var type="displacement"/>
			<var type="rigid force"/>
			<var type="strain energy density"/>
			<var type="stress"/>
		</plotfile>
	</Output>
</febio_spec>
