<?xml version="1.0" encoding="ISO-8859-1"?>
<febio_spec version="4.0">
	<Module type="solid"/>
	<Control>
		<analysis>DYNAMIC</analysis>
		<time_steps>1000</time_steps>
		<step_size>1e-05</step_size>
		<plot_zero_state>0</plot_zero_state>
		<plot_range>0,-1</plot_range>
		<plot_level>PLOT_MAJOR_ITRS</plot_level>
		<output_level>OUTPUT_MAJOR_ITRS</output_level>
		<plot_stride>1</plot_stride>
		<output_stride>1</output_stride>
		<adaptor_re_solve>1</adaptor_re_solve>
		<solver type="explicit-solid">
			<mass_lumping>1</mass_lumping>
			<dyn_damping>1</dyn_damping>
		</solver>
	</Control>
	<Globals>
		<Constants>
			<T>0</T>
			<P>0</P>
			<R>8.31446</R>
			<Fc>96485.3</Fc>
		</Constants>
	</Globals>
	<Material>
		<material id="1" name="Material1" type="neo-Hookean">
			<density>0.01</density>
			<E>10000</E>
			<v>0.3</v>
		</material>
		<material id="2" name="Material2" type="rigid body">
			<density>0.01</density>
			<E>1</E>
			<v>0</v>
		</material>
	</Material>
	<Mesh>
		<Nodes name="Object3">
			<node id="122">-0.1,-0.1,0.45</node>
			<node id="123">0.1,-0.1,0.45</node>
			<node id="124">0.1,0.1,0.45</node>
			<node id="125">-0.1,0.1,0.45</node>
			<node id="126">-0.1,-0.1,0.65</node>
			<node id="127">0.1,-0.1,0.65</node>
			<node id="128">0.1,0.1,0.65</node>
			<node id="129">-0.1,0.1,0.65</node>
		</Nodes>
		<Nodes name="Object4">
			<node id="130">-0.5,-0.5,-0.0460828733</node>
			<node id="131">0.5,-0.5,-0.0460828733</node>
			<node id="132">0.5,0.5,-0.0460828733</node>
			<node id="133">-0.5,0.5,-0.0460828733</node>
			<node id="134">-0.5,-0.5,0.00391712671</node>
			<node id="135">0.5,-0.5,0.00391712671</node>
			<node id="136">0.5,0.5,0.00391712671</node>
			<node id="137">-0.5,0.5,0.00391712671</node>
			<node id="138">-0.4,-0.5,-0.0460828733</node>
			<node id="139">-0.3,-0.5,-0.0460828733</node>
			<node id="140">-0.2,-0.5,-0.0460828733</node>
			<node id="141">-0.1,-0.5,-0.0460828733</node>
			<node id="142">0,-0.5,-0.0460828733</node>
			<node id="143">0.1,-0.5,-0.0460828733</node>
			<node id="144">0.2,-0.5,-0.0460828733</node>
			<node id="145">0.3,-0.5,-0.0460828733</node>
			<node id="146">0.4,-0.5,-0.0460828733</node>
			<node id="147">0.4,-0.5,0.00391712671</node>
			<node id="148">0.3,-0.5,0.00391712671</node>
			<node id="149">0.2,-0.5,0.00391712671</node>
<!-- ... 222 like lines cut -->
		</Nodes>
		<Elements type="hex8" name="Part3">
			<elem id="101">122,123,124,125,126,127,128,129</elem>
		</Elements>
		<Elements type="hex8" name="Part4">
			<elem id="102">130,138,282,200,134,155,291,201</elem>
			<elem id="103">138,139,283,282,155,154,292,291</elem>
			<elem id="104">139,140,284,283,154,153,293,292</elem>
			<elem id="105">140,141,285,284,153,152,294,293</elem>
			<elem id="106">141,142,286,285,152,151,295,294</elem>
			<elem id="107">142,143,287,286,151,150,296,295</elem>
			<elem id="108">143,144,288,287,150,149,297,296</elem>
			<elem id="109">144,145,289,288,149,148,298,297</elem>
			<elem id="110">145,146,290,289,148,147,299,298</elem>
			<elem id="111">146,131,156,290,147,135,173,299</elem>
			<elem id="112">200,282,273,199,201,291,300,202</elem>
			<elem id="113">282,283,274,273,291,292,301,300</elem>
			<elem id="114">283,284,275,274,292,293,302,301</elem>
			<elem id="115">284,285,276,275,293,294,303,302</elem>
			<elem id="116">285,286,277,276,294,295,304,303</elem>
			<elem id="117">286,287,278,277,295,296,305,304</elem>
			<elem id="118">287,288,279,278,296,297,306,305</elem>
			<elem id="119">288,289,280,279,297,298,307,306</elem>
			<elem id="120">289,290,281,280,298,299,308,307</elem>
			<elem id="121">290,156,157,281,299,173,172,308</elem>
<!-- ... 80 like lines cut -->
		</Elements>
		<Surface name="SlidingFacetOnFacet1Primary">
			<quad4 id="1">125,124,123,122</quad4>
		</Surface>
		<Surface name="ZeroDisplacement1">
			<quad4 id="1">130,138,155,134</quad4>
			<quad4 id="2">138,139,154,155</quad4>
			<quad4 id="3">139,140,153,154</quad4>
			<quad4 id="4">140,141,152,153</quad4>
			<quad4 id="5">141,142,151,152</quad4>
			<quad4 id="6">142,143,150,151</quad4>
			<quad4 id="7">143,144,149,150</quad4>
			<quad4 id="8">144,145,148,149</quad4>
			<quad4 id="9">145,146,147,148</quad4>
			<quad4 id="10">146,131,135,147</quad4>
			<quad4 id="11">131,156,173,135</quad4>
			<quad4 id="12">156,157,172,173</quad4>
			<quad4 id="13">157,158,171,172</quad4>
			<quad4 id="14">158,159,170,171</quad4>
			<quad4 id="15">159,160,169,170</quad4>
			<quad4 id="16">160,161,168,169</quad4>
			<quad4 id="17">161,162,167,168</quad4>
			<quad4 id="18">162,163,166,167</quad4>
			<quad4 id="19">163,164,165,166</quad4>
			<quad4 id="20">164,132,136,165</quad4>
<!-- ... 20 like lines cut -->
		</Surface>
		<Surface name="SlidingFacetOnFacet1Secondary">
			<quad4 id="1">134,155,291,201</quad4>
			<quad4 id="2">155,154,292,291</quad4>
			<quad4 id="3">154,153,293,292</quad4>
			<quad4 id="4">153,152,294,293</quad4>
			<quad4 id="5">152,151,295,294</quad4>
			<quad4 id="6">151,150,296,295</quad4>
			<quad4 id="7">150,149,297,296</quad4>
			<quad4 id="8">149,148,298,297</quad4>
			<quad4 id="9">148,147,299,298</quad4>
			<quad4 id="10">147,135,173,299</quad4>
			<quad4 id="11">201,291,300,202</quad4>
			<quad4 id="12">291,292,301,300</quad4>
			<quad4 id="13">292,293,302,301</quad4>
			<quad4 id="14">293,294,303,302</quad4>
			<quad4 id="15">294,295,304,303</quad4>
			<quad4 id="16">295,296,305,304</quad4>
			<quad4 id="17">296,297,306,305</quad4>
			<quad4 id="18">297,298,307,306</quad4>
			<quad4 id="19">298,299,308,307</quad4>
			<quad4 id="20">299,173,172,308</quad4>
<!-- ... 80 like lines cut -->
		</Surface>
		<SurfacePair name="SlidingFacetOnFacet1">
			<primary>SlidingFacetOnFacet1Primary</primary>
			<secondary>SlidingFacetOnFacet1Secondary</secondary>
		</SurfacePair>
	</Mesh>
	<MeshDomains>
		<SolidDomain name="Part3" mat="Material2"/>
		<SolidDomain name="Part4" mat="Material1"/>
	</MeshDomains>
	<Boundary>
		<bc name="ZeroDisplacement1" node_set="@surface:ZeroDisplacement1" type="zero displacement">
			<x_dof>1</x_dof>
			<y_dof>1</y_dof>
			<z_dof>1</z_dof>
		</bc>
	</Boundary>
	<Rigid>
		<rigid_load name="RigidLoad1" type="rigid_force">
			<rb>Material2</rb>
			<dof>Rz</dof>
			<value>-9.81</value>
			<load_type>LOAD</load_type>
			<relative>0</relative>
		</rigid_load>
	</Rigid>
	<Contact>
		<contact name="SlidingFacetOnFacet1" surface_pair="SlidingFacetOnFacet1" type="sliding-elastic">
			<laugon>PENALTY</laugon>
			<tolerance>0.01</tolerance>
			<gaptol>0</gaptol>
			<penalty>1000000</penalty>
			<auto_penalty>0</auto_penalty>
			<update_penalty>0</update_penalty>
			<two_pass>0</two_pass>
			<knmult>0</knmult>
			<search_tol>0.01</search_tol>
			<symmetric_stiffness>0</symmetric_stiffness>
			<search_radius>1</search_radius>
			<seg_up>0</seg_up>
			<tension>0</tension>
			<minaug>0</minaug>
			<maxaug>10</maxaug>
			<node_reloc>0</node_reloc>
			<fric_coeff>0</fric_coeff>
			<smooth_aug>0</smooth_aug>
			<flip_primary>0</flip_primary>
			<flip_secondary>0</flip_secondary>
			<shell_bottom_primary>0</shell_bottom_primary>
			<shell_bottom_secondary>0</shell_bottom_secondary>
			<offset>0</offset>
		</contact>
	</Contact>
	<Output>
		<plotfile type="febio">
			<var type="displacement"/>
			<var type="stress"/>
			<var type="relative volume"/>
			<var type="contact pressure"/>
			<var type="contact gap"/>
		</plotfile>
	</Output>
</febio_spec>
