<?xml version="1.0" encoding="ISO-8859-1"?>
<febio_spec version="4.0">
	<Module type="fluid-solutes">
		<units>SI</units>
	</Module>
	<Control>
		<analysis>DYNAMIC</analysis>
		<time_steps>400</time_steps>
		<step_size>100000</step_size>
		<plot_zero_state>0</plot_zero_state>
		<plot_range>0,-1</plot_range>
		<plot_level>PLOT_MAJOR_ITRS</plot_level>
		<output_level>OUTPUT_MAJOR_ITRS</output_level>
		<plot_stride>1</plot_stride>
		<adaptor_re_solve>1</adaptor_re_solve>
		<time_stepper type="default">
			<max_retries>5</max_retries>
			<opt_iter>100</opt_iter>
			<dtmin>0</dtmin>
			<dtmax>1000000</dtmax>
			<aggressiveness>0</aggressiveness>
			<cutback>0.5</cutback>
			<dtforce>0</dtforce>
		</time_stepper>
		<solver type="fluid-solutes">
			<symmetric_stiffness>non-symmetric</symmetric_stiffness>
			<equation_scheme>staggered</equation_scheme>
			<equation_order>default</equation_order>
			<optimize_bw>0</optimize_bw>
			<lstol>0.9</lstol>
			<lsmin>0.01</lsmin>
			<lsiter>5</lsiter>
			<max_refs>5</max_refs>
			<check_zero_diagonal>0</check_zero_diagonal>
			<zero_diagonal_tol>0</zero_diagonal_tol>
			<force_partition>0</force_partition>
			<reform_each_time_step>1</reform_each_time_step>
			<reform_augment>0</reform_augment>
			<diverge_reform>0</diverge_reform>
			<min_residual>1e-20</min_residual>
			<max_residual>1e+20</max_residual>
			<vtol>0</vtol>
			<ftol>0</ftol>
			<ctol>0.001</ctol>
			<etol>0</etol>
			<rtol>0</rtol>
			<rhoi>0</rhoi>
			<predictor>0</predictor>
			<min_volume_ratio>0</min_volume_ratio>
			<force_positive_concentrations>1</force_positive_concentrations>
			<solve_strategy>coupled</solve_strategy>
			<qn_method type="full Newton"/>
		</solver>
	</Control>
	<Globals>
		<Constants>
			<T>293</T>
			<P>0</P>
			<R>8.31446</R>
			<Fc>96485.3</Fc>
		</Constants>
		<Solutes>
			<solute id="1" name="soluble">
				<charge_number>0</charge_number>
				<molar_mass>1</molar_mass>
				<density>1</density>
			</solute>
			<solute id="2" name="degraded">
				<charge_number>0</charge_number>
				<molar_mass>1</molar_mass>
				<density>1</density>
			</solute>
			<solute id="3" name="bound">
				<charge_number>0</charge_number>
				<molar_mass>1</molar_mass>
				<density>1</density>
			</solute>
		</Solutes>
	</Globals>
	<Material>
		<material id="1" name="Material1" type="fluid-solutes">
			<dms>0</dms>
			<fluid>
				<density>1000</density>
				<k>2.2e+09</k>
				<viscous type="Newtonian fluid">
					<kappa>0</kappa>
					<mu>0</mu>
				</viscous>
				<elastic type="nonlinear"/>
			</fluid>
			<osmotic_coefficient type="osm-coef-const">
				<osmcoef>0</osmcoef>
			</osmotic_coefficient>
			<solute sol="soluble">
				<diffusivity type="diff-const-iso">
					<free_diff>2.93e-09</free_diff>
					<diff>2.93e-09</diff>
				</diffusivity>
				<solubility type="solub-const">
					<solub>1</solub>
				</solubility>
			</solute>
			<solute sol="degraded">
				<diffusivity type="diff-const-iso">
					<free_diff>1e-09</free_diff>
					<diff>1e-09</diff>
				</diffusivity>
				<solubility type="solub-const">
					<solub>1</solub>
				</solubility>
			</solute>
			<solute sol="bound">
				<diffusivity type="diff-const-iso">
					<free_diff>0</free_diff>
					<diff>0</diff>
				</diffusivity>
				<solubility type="solub-const">
					<solub>1</solub>
				</solubility>
			</solute>
			<reaction type="mass-action-forward">
				<Vbar>0</Vbar>
				<forward_rate type="constant reaction rate">
					<k>1.9e-08</k>
				</forward_rate>
				<vP species="soluble">
					<vP>1</vP>
				</vP>
			</reaction>
			<reaction type="mass-action-forward">
				<Vbar>0</Vbar>
				<forward_rate type="constant reaction rate">
					<k>1.2e-05</k>
				</forward_rate>
				<vR species="soluble">
					<vR>1</vR>
				</vR>
				<vP species="bound">
					<vP>1</vP>
				</vP>
			</reaction>
			<reaction type="mass-action-forward">
				<Vbar>0</Vbar>
				<forward_rate type="constant reaction rate">
					<k>3.7e-07</k>
				</forward_rate>
				<vR species="bound">
					<vR>1</vR>
				</vR>
				<vP species="degraded">
					<vP>1</vP>
				</vP>
			</reaction>
		</material>
	</Material>
	<Mesh>
		<Nodes name="Object1">
			<node id="1">-0.5,-0.5,0</node>
			<node id="2">0.5,-0.5,0</node>
			<node id="3">0.5,0.5,0</node>
			<node id="4">-0.5,0.5,0</node>
			<node id="5">-0.5,-0.5,0.125</node>
			<node id="6">0.5,-0.5,0.125</node>
			<node id="7">0.5,0.5,0.125</node>
			<node id="8">-0.5,0.5,0.125</node>
			<node id="9">0.5,-0.5,0.0130533465</node>
			<node id="10">0.5,-0.5,0.0248013583</node>
			<node id="11">0.5,-0.5,0.035374569</node>
			<node id="12">0.5,-0.5,0.0448904585</node>
			<node id="13">0.5,-0.5,0.0534547592</node>
			<node id="14">0.5,-0.5,0.0611626297</node>
			<node id="15">0.5,-0.5,0.0680997132</node>
			<node id="16">0.5,-0.5,0.0743430884</node>
			<node id="17">0.5,-0.5,0.079962126</node>
			<node id="18">0.5,-0.5,0.0850192599</node>
			<node id="19">0.5,-0.5,0.0895706804</node>
			<node id="20">0.5,-0.5,0.0936669588</node>
<!-- ... 104 like lines cut -->
		</Nodes>
		<Elements type="hex8" name="Part1">
			<elem id="1">1,2,3,4,66,9,67,96</elem>
			<elem id="2">66,9,67,96,65,10,68,97</elem>
			<elem id="3">65,10,68,97,64,11,69,98</elem>
			<elem id="4">64,11,69,98,63,12,70,99</elem>
			<elem id="5">63,12,70,99,62,13,71,100</elem>
			<elem id="6">62,13,71,100,61,14,72,101</elem>
			<elem id="7">61,14,72,101,60,15,73,102</elem>
			<elem id="8">60,15,73,102,59,16,74,103</elem>
			<elem id="9">59,16,74,103,58,17,75,104</elem>
			<elem id="10">58,17,75,104,57,18,76,105</elem>
			<elem id="11">57,18,76,105,56,19,77,106</elem>
			<elem id="12">56,19,77,106,55,20,78,107</elem>
			<elem id="13">55,20,78,107,54,21,79,108</elem>
			<elem id="14">54,21,79,108,53,22,80,109</elem>
			<elem id="15">53,22,80,109,52,23,81,110</elem>
			<elem id="16">52,23,81,110,51,24,82,111</elem>
			<elem id="17">51,24,82,111,50,25,83,112</elem>
			<elem id="18">50,25,83,112,49,26,84,113</elem>
			<elem id="19">49,26,84,113,48,27,85,114</elem>
			<elem id="20">48,27,85,114,47,28,86,115</elem>
<!-- ... 10 like lines cut -->
		</Elements>
		<Surface name="ZeroFluidVelocity1">
			<quad4 id="1">1,2,9,66</quad4>
			<quad4 id="2">66,9,10,65</quad4>
			<quad4 id="3">65,10,11,64</quad4>
			<quad4 id="4">64,11,12,63</quad4>
			<quad4 id="5">63,12,13,62</quad4>
			<quad4 id="6">62,13,14,61</quad4>
			<quad4 id="7">61,14,15,60</quad4>
			<quad4 id="8">60,15,16,59</quad4>
			<quad4 id="9">59,16,17,58</quad4>
			<quad4 id="10">58,17,18,57</quad4>
			<quad4 id="11">57,18,19,56</quad4>
			<quad4 id="12">56,19,20,55</quad4>
			<quad4 id="13">55,20,21,54</quad4>
			<quad4 id="14">54,21,22,53</quad4>
			<quad4 id="15">53,22,23,52</quad4>
			<quad4 id="16">52,23,24,51</quad4>
			<quad4 id="17">51,24,25,50</quad4>
			<quad4 id="18">50,25,26,49</quad4>
			<quad4 id="19">49,26,27,48</quad4>
			<quad4 id="20">48,27,28,47</quad4>
<!-- ... 40 like lines cut -->
		</Surface>
		<Surface name="ZeroFluidVelocity2">
			<quad4 id="1">2,3,67,9</quad4>
			<quad4 id="2">9,67,68,10</quad4>
			<quad4 id="3">10,68,69,11</quad4>
			<quad4 id="4">11,69,70,12</quad4>
			<quad4 id="5">12,70,71,13</quad4>
			<quad4 id="6">13,71,72,14</quad4>
			<quad4 id="7">14,72,73,15</quad4>
			<quad4 id="8">15,73,74,16</quad4>
			<quad4 id="9">16,74,75,17</quad4>
			<quad4 id="10">17,75,76,18</quad4>
			<quad4 id="11">18,76,77,19</quad4>
			<quad4 id="12">19,77,78,20</quad4>
			<quad4 id="13">20,78,79,21</quad4>
			<quad4 id="14">21,79,80,22</quad4>
			<quad4 id="15">22,80,81,23</quad4>
			<quad4 id="16">23,81,82,24</quad4>
			<quad4 id="17">24,82,83,25</quad4>
			<quad4 id="18">25,83,84,26</quad4>
			<quad4 id="19">26,84,85,27</quad4>
			<quad4 id="20">27,85,86,28</quad4>
<!-- ... 40 like lines cut -->
		</Surface>
		<Surface name="ZeroFluidVelocity3">
			<quad4 id="1">4,3,2,1</quad4>
		</Surface>
		<Surface name="FluidPressure4">
			<quad4 id="1">5,6,7,8</quad4>
		</Surface>
		<Surface name="ZeroConcentration5">
			<quad4 id="1">5,6,7,8</quad4>
		</Surface>
		<Surface name="ZeroConcentration6">
			<quad4 id="1">5,6,7,8</quad4>
		</Surface>
	</Mesh>
	<MeshDomains>
		<SolidDomain name="Part1" mat="Material1"/>
	</MeshDomains>
	<Boundary>
		<bc name="ZeroFluidVelocity1" node_set="@surface:ZeroFluidVelocity1" type="zero fluid velocity">
			<wx_dof>1</wx_dof>
			<wy_dof>0</wy_dof>
			<wz_dof>0</wz_dof>
		</bc>
		<bc name="ZeroFluidVelocity2" node_set="@surface:ZeroFluidVelocity2" type="zero fluid velocity">
			<wx_dof>0</wx_dof>
			<wy_dof>1</wy_dof>
			<wz_dof>0</wz_dof>
		</bc>
		<bc name="ZeroFluidVelocity3" node_set="@surface:ZeroFluidVelocity3" type="zero fluid velocity">
			<wx_dof>0</wx_dof>
			<wy_dof>0</wy_dof>
			<wz_dof>1</wz_dof>
		</bc>
		<bc name="FluidPressure4" surface="FluidPressure4" type="fluid pressure">
			<pressure>0</pressure>
		</bc>
		<bc name="ZeroConcentration5" node_set="@surface:ZeroConcentration5" type="zero concentration">
			<c_dof>c1</c_dof>
		</bc>
		<bc name="ZeroConcentration6" node_set="@surface:ZeroConcentration6" type="zero concentration">
			<c_dof>c2</c_dof>
		</bc>
	</Boundary>
	<Output>
		<plotfile type="febio">
			<var type="displacement"/>
			<var type="effective fluid pressure"/>
			<var type="effective solute concentration"/>
			<var type="fluid acceleration"/>
			<var type="fluid dilatation"/>
			<var type="fluid pressure"/>
			<var type="fluid rate of deformation"/>
			<var type="fluid stress"/>
			<var type="fluid velocity"/>
			<var type="fluid volume ratio"/>
			<var type="fluid vorticity"/>
			<var type="nodal fluid velocity"/>
			<var type="solute concentration"/>
			<var type="solute flux"/>
		</plotfile>
	</Output>
</febio_spec>
