<?xml version="1.0" encoding="ISO-8859-1"?>
<!--
Flow in rectangular channel with a block. Reaches steady
state due to backward euler. Fluid normal velocity load on inlet, 0 ef outlet.

Similar examples seen in results of
Ateshian GA, Shim JJ, Maas SA, Weiss JA. (2018) J Biomech Eng, 140(2):02100102100117.
-->
<febio_spec version="4.0">
	<Module type="fluid-solutes">
		<units>CGS</units>
	</Module>
	<Control>
		<analysis>DYNAMIC</analysis>
		<time_steps>50</time_steps>
		<!-- <time_steps>100</time_steps> -->
		<step_size>0.1</step_size>
		<plot_zero_state>0</plot_zero_state>
		<plot_range>0,-1</plot_range>
		<plot_level>PLOT_MAJOR_ITRS</plot_level>
		<output_level>OUTPUT_MAJOR_ITRS</output_level>
		<plot_stride>1</plot_stride>
		<adaptor_re_solve>1</adaptor_re_solve>
		<time_stepper type="default">
			<max_retries>5</max_retries>
			<opt_iter>100</opt_iter>
			<dtmin>0</dtmin>
			<dtmax>0.1</dtmax>
			<aggressiveness>0</aggressiveness>
			<cutback>0.5</cutback>
			<dtforce>0</dtforce>
		</time_stepper>
		<solver type="fluid-solutes">
			<symmetric_stiffness>non-symmetric</symmetric_stiffness>
			<equation_scheme>block</equation_scheme>
			<equation_order>default</equation_order>
			<optimize_bw>0</optimize_bw>
			<lstol>0.9</lstol>
			<lsmin>0.01</lsmin>
			<lsiter>5</lsiter>
			<max_refs>5</max_refs>
			<check_zero_diagonal>0</check_zero_diagonal>
			<zero_diagonal_tol>0</zero_diagonal_tol>
			<force_partition>0</force_partition>
			<reform_each_time_step>1</reform_each_time_step>
			<reform_augment>0</reform_augment>
			<diverge_reform>0</diverge_reform>
			<min_residual>1e-20</min_residual>
			<max_residual>1e+20</max_residual>
			<vtol>0.001</vtol>
			<ftol>0.001</ftol>
			<ctol>0</ctol>
			<etol>0</etol>
			<rtol>0.001</rtol>
			<rhoi>0</rhoi>
			<predictor>0</predictor>
			<min_volume_ratio>0</min_volume_ratio>
			<force_positive_concentrations>1</force_positive_concentrations>
			<solve_strategy>sequential</solve_strategy>
			<qn_method type="Broyden">
				<max_ups>20</max_ups>
				<max_buffer_size>0</max_buffer_size>
				<cycle_buffer>1</cycle_buffer>
				<cmax>100000</cmax>
			</qn_method>
		</solver>
	</Control>
	<Globals>
		<Constants>
			<T>298</T>
			<P>0</P>
			<R>83.1446</R>
			<Fc>9.64853</Fc>
		</Constants>
		<Solutes>
			<solute id="1" name="neutral">
				<charge_number>0</charge_number>
				<molar_mass>1</molar_mass>
				<density>1</density>
			</solute>
		</Solutes>
	</Globals>
	<Material>
		<material id="1" name="Fluid with solute" type="fluid-solutes">
			<dms>0</dms>
			<fluid>
				<density>1</density>
				<k>2.2e+10</k>
				<viscous type="Newtonian fluid">
					<kappa>0</kappa>
					<mu>0.025</mu>
				</viscous>
				<elastic type="nonlinear"/>
			</fluid>
			<osmotic_coefficient type="osm-coef-const">
				<osmcoef>0</osmcoef>
			</osmotic_coefficient>
			<solute sol="neutral">
				<diffusivity type="diff-const-iso">
					<free_diff>0.01</free_diff>
					<diff>0.01</diff>
				</diffusivity>
				<solubility type="solub-const">
					<solub>1</solub>
				</solubility>
			</solute>
		</material>
	</Material>
	<Mesh>
		<Nodes name="Object01">
			<node id="1">0,0,0</node>
			<node id="2">0,0,0.1</node>
			<node id="3">0,0.25,0</node>
			<node id="4">0,0.25,0.1</node>
			<node id="5">0,0.5,0</node>
			<node id="6">0,0.5,0.1</node>
			<node id="7">0,0.75,0</node>
			<node id="8">0,0.75,0.1</node>
			<node id="9">0,1,0</node>
			<node id="10">0,1,0.1</node>
			<node id="11">0,1.25,0</node>
			<node id="12">0,1.25,0.1</node>
			<node id="13">0,1.5,0</node>
			<node id="14">0,1.5,0.1</node>
			<node id="15">0,1.75,0</node>
			<node id="16">0,1.75,0.1</node>
			<node id="17">0,2,0</node>
			<node id="18">0,2,0.1</node>
			<node id="19">0,2.25,0</node>
			<node id="20">0,2.25,0.1</node>
<!-- ... 2438 like lines cut -->
		</Nodes>
		<Elements type="hex8" name="Part2">
			<elem id="1">3,25,27,5,4,26,28,6</elem>
			<elem id="2">5,27,29,7,6,28,30,8</elem>
			<elem id="3">7,29,31,9,8,30,32,10</elem>
			<elem id="4">9,31,33,11,10,32,34,12</elem>
			<elem id="5">11,33,35,13,12,34,36,14</elem>
			<elem id="6">13,35,37,15,14,36,38,16</elem>
			<elem id="7">15,37,39,17,16,38,40,18</elem>
			<elem id="8">17,39,41,19,18,40,42,20</elem>
			<elem id="9">25,47,49,27,26,48,50,28</elem>
			<elem id="10">27,49,51,29,28,50,52,30</elem>
			<elem id="11">29,51,53,31,30,52,54,32</elem>
			<elem id="12">31,53,55,33,32,54,56,34</elem>
			<elem id="13">33,55,57,35,34,56,58,36</elem>
			<elem id="14">35,57,59,37,36,58,60,38</elem>
			<elem id="15">37,59,61,39,38,60,62,40</elem>
			<elem id="16">39,61,63,41,40,62,64,42</elem>
			<elem id="17">47,69,71,49,48,70,72,50</elem>
			<elem id="18">49,71,73,51,50,72,74,52</elem>
			<elem id="19">51,73,75,53,52,74,76,54</elem>
			<elem id="20">53,75,77,55,54,76,78,56</elem>
<!-- ... 1128 like lines cut -->
		</Elements>
		<Elements type="penta6" name="Part2__2">
			<elem id="1149">311,1876,1900,312,1882,1906</elem>
			<elem id="1150">311,1900,1888,312,1906,1894</elem>
			<elem id="1151">433,2021,2044,434,2033,2050</elem>
			<elem id="1152">433,2044,2020,434,2050,2032</elem>
			<elem id="1153">339,1954,2440,340,1966,2446</elem>
			<elem id="1154">339,2440,1931,340,2446,1937</elem>
			<elem id="1155">409,2080,2452,410,2086,2458</elem>
			<elem id="1156">409,2452,2003,410,2458,2009</elem>
		</Elements>
		<Surface name="FixedFluidVelocity01">
			<quad4 id="1">5,27,25,3</quad4>
			<quad4 id="2">7,29,27,5</quad4>
			<quad4 id="3">9,31,29,7</quad4>
			<quad4 id="4">11,33,31,9</quad4>
			<quad4 id="5">13,35,33,11</quad4>
			<quad4 id="6">15,37,35,13</quad4>
			<quad4 id="7">17,39,37,15</quad4>
			<quad4 id="8">19,41,39,17</quad4>
			<quad4 id="9">27,49,47,25</quad4>
			<quad4 id="10">29,51,49,27</quad4>
			<quad4 id="11">31,53,51,29</quad4>
			<quad4 id="12">33,55,53,31</quad4>
			<quad4 id="13">35,57,55,33</quad4>
			<quad4 id="14">37,59,57,35</quad4>
			<quad4 id="15">39,61,59,37</quad4>
			<quad4 id="16">41,63,61,39</quad4>
			<quad4 id="17">49,71,69,47</quad4>
			<quad4 id="18">51,73,71,49</quad4>
			<quad4 id="19">53,75,73,51</quad4>
			<quad4 id="20">55,77,75,53</quad4>
<!-- ... 872 like lines cut -->
			<tri3 id="893">311,1900,1876</tri3>
			<tri3 id="894">311,1888,1900</tri3>
			<tri3 id="895">433,2044,2021</tri3>
			<tri3 id="896">433,2020,2044</tri3>
			<tri3 id="897">339,2440,1954</tri3>
			<tri3 id="898">339,1931,2440</tri3>
			<tri3 id="899">409,2452,2080</tri3>
			<tri3 id="900">409,2003,2452</tri3>
			<quad4 id="901">343,357,355,341</quad4>
			<quad4 id="902">345,359,357,343</quad4>
			<quad4 id="903">347,361,359,345</quad4>
			<quad4 id="904">349,363,361,347</quad4>
			<quad4 id="905">357,371,369,355</quad4>
			<quad4 id="906">359,373,371,357</quad4>
			<quad4 id="907">361,375,373,359</quad4>
			<quad4 id="908">363,377,375,361</quad4>
			<quad4 id="909">371,385,383,369</quad4>
			<quad4 id="910">373,387,385,371</quad4>
			<quad4 id="911">375,389,387,373</quad4>
			<quad4 id="912">377,391,389,375</quad4>
			<quad4 id="913">385,399,397,383</quad4>
			<quad4 id="914">387,401,399,385</quad4>
			<quad4 id="915">389,403,401,387</quad4>
			<quad4 id="916">391,405,403,389</quad4>
			<quad4 id="917">399,413,411,397</quad4>
			<quad4 id="918">401,415,413,399</quad4>
			<quad4 id="919">403,417,415,401</quad4>
			<quad4 id="920">405,419,417,403</quad4>
<!-- ... 1128 like lines cut -->
			<tri3 id="2049">312,1882,1906</tri3>
			<tri3 id="2050">312,1906,1894</tri3>
			<tri3 id="2051">434,2033,2050</tri3>
			<tri3 id="2052">434,2050,2032</tri3>
			<tri3 id="2053">340,1966,2446</tri3>
			<tri3 id="2054">340,2446,1937</tri3>
			<tri3 id="2055">410,2086,2458</tri3>
			<tri3 id="2056">410,2458,2009</tri3>
			<quad4 id="2057">342,356,358,344</quad4>
			<quad4 id="2058">344,358,360,346</quad4>
			<quad4 id="2059">346,360,362,348</quad4>
			<quad4 id="2060">348,362,364,350</quad4>
			<quad4 id="2061">356,370,372,358</quad4>
			<quad4 id="2062">358,372,374,360</quad4>
			<quad4 id="2063">360,374,376,362</quad4>
			<quad4 id="2064">362,376,378,364</quad4>
			<quad4 id="2065">370,384,386,372</quad4>
			<quad4 id="2066">372,386,388,374</quad4>
			<quad4 id="2067">374,388,390,376</quad4>
			<quad4 id="2068">376,390,392,378</quad4>
			<quad4 id="2069">384,398,400,386</quad4>
			<quad4 id="2070">386,400,402,388</quad4>
			<quad4 id="2071">388,402,404,390</quad4>
			<quad4 id="2072">390,404,406,392</quad4>
			<quad4 id="2073">398,412,414,400</quad4>
			<quad4 id="2074">400,414,416,402</quad4>
			<quad4 id="2075">402,416,418,404</quad4>
			<quad4 id="2076">404,418,420,406</quad4>
<!-- ... 236 like lines cut -->
		</Surface>
		<Surface name="FixedFluidVelocity02">
			<quad4 id="1">43,21,22,44</quad4>
			<quad4 id="2">65,43,44,66</quad4>
			<quad4 id="3">87,65,66,88</quad4>
			<quad4 id="4">109,87,88,110</quad4>
			<quad4 id="5">131,109,110,132</quad4>
			<quad4 id="6">153,131,132,154</quad4>
			<quad4 id="7">175,153,154,176</quad4>
			<quad4 id="8">197,175,176,198</quad4>
			<quad4 id="9">219,197,198,220</quad4>
			<quad4 id="10">241,219,220,242</quad4>
			<quad4 id="11">263,241,242,264</quad4>
			<quad4 id="12">285,263,264,286</quad4>
			<quad4 id="13">307,285,286,308</quad4>
			<quad4 id="14">329,307,308,330</quad4>
			<quad4 id="15">351,329,330,352</quad4>
			<quad4 id="16">365,351,352,366</quad4>
			<quad4 id="17">379,365,366,380</quad4>
			<quad4 id="18">393,379,380,394</quad4>
			<quad4 id="19">407,393,394,408</quad4>
			<quad4 id="20">421,407,408,422</quad4>
<!-- ... 88 like lines cut -->
		</Surface>
		<Surface name="FluidPressure3">
			<quad4 id="1">1696,1089,1090,1702</quad4>
			<quad4 id="2">1695,1696,1702,1701</quad4>
			<quad4 id="3">1694,1695,1701,1700</quad4>
			<quad4 id="4">1693,1694,1700,1699</quad4>
			<quad4 id="5">1692,1693,1699,1698</quad4>
			<quad4 id="6">1691,1692,1698,1697</quad4>
			<quad4 id="7">1087,1691,1697,1088</quad4>
			<quad4 id="8">2428,1071,1072,2434</quad4>
			<quad4 id="9">2427,2428,2434,2433</quad4>
			<quad4 id="10">2426,2427,2433,2432</quad4>
			<quad4 id="11">2425,2426,2432,2431</quad4>
			<quad4 id="12">2424,2425,2431,2430</quad4>
			<quad4 id="13">2423,2424,2430,2429</quad4>
			<quad4 id="14">1069,2423,2429,1070</quad4>
			<quad4 id="15">1071,1073,1074,1072</quad4>
			<quad4 id="16">1073,1075,1076,1074</quad4>
			<quad4 id="17">1075,1077,1078,1076</quad4>
			<quad4 id="18">1077,1079,1080,1078</quad4>
			<quad4 id="19">1079,1081,1082,1080</quad4>
			<quad4 id="20">1081,1083,1084,1082</quad4>
			<quad4 id="21">1083,1085,1086,1084</quad4>
			<quad4 id="22">1085,1087,1088,1086</quad4>
		</Surface>
		<Surface name="FluidNormalVelocity01">
			<quad4 id="1">5,3,4,6</quad4>
			<quad4 id="2">7,5,6,8</quad4>
			<quad4 id="3">9,7,8,10</quad4>
			<quad4 id="4">11,9,10,12</quad4>
			<quad4 id="5">13,11,12,14</quad4>
			<quad4 id="6">15,13,14,16</quad4>
			<quad4 id="7">17,15,16,18</quad4>
			<quad4 id="8">19,17,18,20</quad4>
			<quad4 id="9">21,1097,1109,22</quad4>
			<quad4 id="10">1097,1098,1110,1109</quad4>
			<quad4 id="11">1098,1099,1111,1110</quad4>
			<quad4 id="12">1099,1100,1112,1111</quad4>
			<quad4 id="13">1100,1101,1113,1112</quad4>
			<quad4 id="14">1101,1102,1114,1113</quad4>
			<quad4 id="15">1102,19,20,1114</quad4>
			<quad4 id="16">3,1709,1721,4</quad4>
			<quad4 id="17">1709,1710,1722,1721</quad4>
			<quad4 id="18">1710,1711,1723,1722</quad4>
			<quad4 id="19">1711,1712,1724,1723</quad4>
			<quad4 id="20">1712,1713,1725,1724</quad4>
			<quad4 id="21">1713,1714,1726,1725</quad4>
			<quad4 id="22">1714,1,2,1726</quad4>
		</Surface>
		<Surface name="FluidBackflowStabilization01">
			<quad4 id="1">1696,1089,1090,1702</quad4>
			<quad4 id="2">1695,1696,1702,1701</quad4>
			<quad4 id="3">1694,1695,1701,1700</quad4>
			<quad4 id="4">1693,1694,1700,1699</quad4>
			<quad4 id="5">1692,1693,1699,1698</quad4>
			<quad4 id="6">1691,1692,1698,1697</quad4>
			<quad4 id="7">1087,1691,1697,1088</quad4>
			<quad4 id="8">2428,1071,1072,2434</quad4>
			<quad4 id="9">2427,2428,2434,2433</quad4>
			<quad4 id="10">2426,2427,2433,2432</quad4>
			<quad4 id="11">2425,2426,2432,2431</quad4>
			<quad4 id="12">2424,2425,2431,2430</quad4>
			<quad4 id="13">2423,2424,2430,2429</quad4>
			<quad4 id="14">1069,2423,2429,1070</quad4>
			<quad4 id="15">1071,1073,1074,1072</quad4>
			<quad4 id="16">1073,1075,1076,1074</quad4>
			<quad4 id="17">1075,1077,1078,1076</quad4>
			<quad4 id="18">1077,1079,1080,1078</quad4>
			<quad4 id="19">1079,1081,1082,1080</quad4>
			<quad4 id="20">1081,1083,1084,1082</quad4>
			<quad4 id="21">1083,1085,1086,1084</quad4>
			<quad4 id="22">1085,1087,1088,1086</quad4>
		</Surface>
		<Surface name="FluidTangentialStabilization01">
			<quad4 id="1">1696,1089,1090,1702</quad4>
			<quad4 id="2">1695,1696,1702,1701</quad4>
			<quad4 id="3">1694,1695,1701,1700</quad4>
			<quad4 id="4">1693,1694,1700,1699</quad4>
			<quad4 id="5">1692,1693,1699,1698</quad4>
			<quad4 id="6">1691,1692,1698,1697</quad4>
			<quad4 id="7">1087,1691,1697,1088</quad4>
			<quad4 id="8">2428,1071,1072,2434</quad4>
			<quad4 id="9">2427,2428,2434,2433</quad4>
			<quad4 id="10">2426,2427,2433,2432</quad4>
			<quad4 id="11">2425,2426,2432,2431</quad4>
			<quad4 id="12">2424,2425,2431,2430</quad4>
			<quad4 id="13">2423,2424,2430,2429</quad4>
			<quad4 id="14">1069,2423,2429,1070</quad4>
			<quad4 id="15">1071,1073,1074,1072</quad4>
			<quad4 id="16">1073,1075,1076,1074</quad4>
			<quad4 id="17">1075,1077,1078,1076</quad4>
			<quad4 id="18">1077,1079,1080,1078</quad4>
			<quad4 id="19">1079,1081,1082,1080</quad4>
			<quad4 id="20">1081,1083,1084,1082</quad4>
			<quad4 id="21">1083,1085,1086,1084</quad4>
			<quad4 id="22">1085,1087,1088,1086</quad4>
		</Surface>
		<Surface name="SoluteBackflowStabilization4">
			<quad4 id="1">1696,1089,1090,1702</quad4>
			<quad4 id="2">1695,1696,1702,1701</quad4>
			<quad4 id="3">1694,1695,1701,1700</quad4>
			<quad4 id="4">1693,1694,1700,1699</quad4>
			<quad4 id="5">1692,1693,1699,1698</quad4>
			<quad4 id="6">1691,1692,1698,1697</quad4>
			<quad4 id="7">1087,1691,1697,1088</quad4>
			<quad4 id="8">2428,1071,1072,2434</quad4>
			<quad4 id="9">2427,2428,2434,2433</quad4>
			<quad4 id="10">2426,2427,2433,2432</quad4>
			<quad4 id="11">2425,2426,2432,2431</quad4>
			<quad4 id="12">2424,2425,2431,2430</quad4>
			<quad4 id="13">2423,2424,2430,2429</quad4>
			<quad4 id="14">1069,2423,2429,1070</quad4>
			<quad4 id="15">1071,1073,1074,1072</quad4>
			<quad4 id="16">1073,1075,1076,1074</quad4>
			<quad4 id="17">1075,1077,1078,1076</quad4>
			<quad4 id="18">1077,1079,1080,1078</quad4>
			<quad4 id="19">1079,1081,1082,1080</quad4>
			<quad4 id="20">1081,1083,1084,1082</quad4>
			<quad4 id="21">1083,1085,1086,1084</quad4>
			<quad4 id="22">1085,1087,1088,1086</quad4>
		</Surface>
		<Surface name="PrescribedConcentration4">
			<quad4 id="1">5,3,4,6</quad4>
			<quad4 id="2">7,5,6,8</quad4>
			<quad4 id="3">9,7,8,10</quad4>
			<quad4 id="4">11,9,10,12</quad4>
			<quad4 id="5">13,11,12,14</quad4>
			<quad4 id="6">15,13,14,16</quad4>
			<quad4 id="7">17,15,16,18</quad4>
			<quad4 id="8">19,17,18,20</quad4>
			<quad4 id="9">21,1097,1109,22</quad4>
			<quad4 id="10">1097,1098,1110,1109</quad4>
			<quad4 id="11">1098,1099,1111,1110</quad4>
			<quad4 id="12">1099,1100,1112,1111</quad4>
			<quad4 id="13">1100,1101,1113,1112</quad4>
			<quad4 id="14">1101,1102,1114,1113</quad4>
			<quad4 id="15">1102,19,20,1114</quad4>
			<quad4 id="16">3,1709,1721,4</quad4>
			<quad4 id="17">1709,1710,1722,1721</quad4>
			<quad4 id="18">1710,1711,1723,1722</quad4>
			<quad4 id="19">1711,1712,1724,1723</quad4>
			<quad4 id="20">1712,1713,1725,1724</quad4>
			<quad4 id="21">1713,1714,1726,1725</quad4>
			<quad4 id="22">1714,1,2,1726</quad4>
		</Surface>
	</Mesh>
	<MeshDomains>
		<SolidDomain name="Part2" mat="Fluid with solute"/>
		<SolidDomain name="Part2__2" mat="Fluid with solute"/>
	</MeshDomains>
	<Boundary>
		<bc name="FixedFluidVelocity01" node_set="@surface:FixedFluidVelocity01" type="zero fluid velocity">
			<wx_dof>0</wx_dof>
			<wy_dof>0</wy_dof>
			<wz_dof>1</wz_dof>
		</bc>
		<bc name="FixedFluidVelocity02" node_set="@surface:FixedFluidVelocity02" type="zero fluid velocity">
			<wx_dof>1</wx_dof>
			<wy_dof>1</wy_dof>
			<wz_dof>0</wz_dof>
		</bc>
		<bc name="FluidPressure3" surface="FluidPressure3" type="fluid pressure">
			<pressure>0</pressure>
		</bc>
		<bc name="PrescribedConcentration4" node_set="@surface:PrescribedConcentration4" type="prescribed concentration">
			<dof>c1</dof>
			<value lc="1">1</value>
			<relative>0</relative>
		</bc>
	</Boundary>
	<Loads>
		<surface_load name="FluidNormalVelocity01" surface="FluidNormalVelocity01" type="fluid normal velocity">
			<velocity lc="1">-1</velocity>
			<prescribe_nodal_velocities>1</prescribe_nodal_velocities>
			<parabolic>0</parabolic>
			<prescribe_rim_pressure>1</prescribe_rim_pressure>
		</surface_load>
		<surface_load name="FluidBackflowStabilization01" surface="FluidBackflowStabilization01" type="fluid backflow stabilization">
			<beta>1</beta>
		</surface_load>
		<surface_load name="FluidTangentialStabilization01" surface="FluidTangentialStabilization01" type="fluid tangential stabilization">
			<beta>1</beta>
		</surface_load>
		<surface_load name="SoluteBackflowStabilization4" surface="SoluteBackflowStabilization4" type="solute backflow stabilization">
			<solute_id>neutral</solute_id>
		</surface_load>
	</Loads>
	<LoadData>
		<load_controller id="1" name="LC1" type="loadcurve">
			<interpolate>SMOOTH</interpolate>
			<extend>CONSTANT</extend>
			<points>
				<pt>0,0</pt>
				<pt>1,1</pt>
			</points>
		</load_controller>
	</LoadData>
	<Output>
		<plotfile type="febio">
			<var type="displacement"/>
			<var type="fluid pressure"/>
			<var type="fluid acceleration"/>
			<var type="fluid dilatation"/>
			<var type="fluid rate of deformation"/>
			<var type="fluid stress"/>
			<var type="fluid velocity"/>
			<var type="fluid vorticity"/>
			<var type="nodal fluid velocity"/>
			<var type="solute relative Peclet number"/>
			<var type="effective solute concentration"/>
			<var type="solute concentration"/>
			<var type="solute flux"/>
			<var type="fluid relative Reynolds number"/>
		</plotfile>
	</Output>
</febio_spec>
