<?xml version="1.0" encoding="ISO-8859-1"?>
<febio_spec version="4.0">
	<Module type="fluid-solutes">
		<units>SI</units>
	</Module>
	<Control>
		<analysis>DYNAMIC</analysis>
		<time_steps>1000</time_steps>
		<step_size>0.001</step_size>
		<plot_zero_state>0</plot_zero_state>
		<plot_range>0,-1</plot_range>
		<plot_level>PLOT_MAJOR_ITRS</plot_level>
		<output_level>OUTPUT_MAJOR_ITRS</output_level>
		<plot_stride>1</plot_stride>
		<adaptor_re_solve>1</adaptor_re_solve>
		<time_stepper type="default">
			<max_retries>5</max_retries>
			<opt_iter>100</opt_iter>
			<dtmin>0</dtmin>
			<dtmax lc="1">0</dtmax>
			<aggressiveness>0</aggressiveness>
			<cutback>0.5</cutback>
			<dtforce>0</dtforce>
		</time_stepper>
		<solver type="fluid-solutes">
			<symmetric_stiffness>non-symmetric</symmetric_stiffness>
			<equation_scheme>staggered</equation_scheme>
			<equation_order>default</equation_order>
			<optimize_bw>0</optimize_bw>
			<lstol>0.9</lstol>
			<lsmin>0.01</lsmin>
			<lsiter>5</lsiter>
			<max_refs>5</max_refs>
			<check_zero_diagonal>0</check_zero_diagonal>
			<zero_diagonal_tol>0</zero_diagonal_tol>
			<force_partition>0</force_partition>
			<reform_each_time_step>1</reform_each_time_step>
			<reform_augment>0</reform_augment>
			<diverge_reform>0</diverge_reform>
			<min_residual>1e-20</min_residual>
			<max_residual>1e+20</max_residual>
			<vtol>0.001</vtol>
			<ftol>0.001</ftol>
			<ctol>0.001</ctol>
			<etol>0</etol>
			<rtol>0</rtol>
			<rhoi>1</rhoi>
			<predictor>0</predictor>
			<min_volume_ratio>0</min_volume_ratio>
			<force_positive_concentrations>1</force_positive_concentrations>
			<solve_strategy>coupled</solve_strategy>
			<qn_method type="full Newton"/>
		</solver>
	</Control>
	<Globals>
		<Constants>
			<T>298</T>
			<P>0</P>
			<R>8.31446</R>
			<Fc>96485.3</Fc>
		</Constants>
		<Solutes>
			<solute id="1" name="neutral">
				<charge_number>0</charge_number>
				<molar_mass>1</molar_mass>
				<density>1</density>
			</solute>
		</Solutes>
	</Globals>
	<Material>
		<material id="1" name="Material1" type="fluid-solutes">
			<dms>1</dms>
			<fluid>
				<density>1000</density>
				<k>2.2e+09</k>
				<viscous type="Newtonian fluid">
					<kappa>0</kappa>
					<mu>0.001</mu>
				</viscous>
				<elastic type="nonlinear"/>
			</fluid>
			<osmotic_coefficient type="osm-coef-const">
				<osmcoef>1</osmcoef>
			</osmotic_coefficient>
			<solute sol="neutral">
				<diffusivity type="diff-const-iso">
					<free_diff>0.1</free_diff>
					<diff>0.1</diff>
				</diffusivity>
				<solubility type="solub-const">
					<solub>1</solub>
				</solubility>
			</solute>
		</material>
	</Material>
	<Mesh>
		<Nodes name="MergedObject1">
			<node id="1">0,0,0</node>
			<node id="2">0.0543340325,0,0</node>
			<node id="3">0.0524826452,0.0140626824,0</node>
			<node id="4">0.0470546524,0.0271670163,0</node>
			<node id="5">0.0384199628,0.0384199628,0</node>
			<node id="6">0.0271670163,0.0470546524,0</node>
			<node id="7">0.0140626824,0.0524826452,0</node>
			<node id="8">3.32699995e-18,0.0543340325,0</node>
			<node id="9">-0.0140626824,0.0524826452,0</node>
			<node id="10">-0.0271670163,0.0470546524,0</node>
			<node id="11">-0.0384199628,0.0384199628,0</node>
			<node id="12">-0.0470546524,0.0271670163,0</node>
			<node id="13">-0.0524826452,0.0140626824,0</node>
			<node id="14">-0.0543340325,6.6539999e-18,0</node>
			<node id="15">-0.0524826452,-0.0140626824,0</node>
			<node id="16">-0.0470546524,-0.0271670163,0</node>
			<node id="17">-0.0384199628,-0.0384199628,0</node>
			<node id="18">-0.0271670163,-0.0470546524,0</node>
			<node id="19">-0.0140626824,-0.0524826452,0</node>
			<node id="20">-9.98099985e-18,-0.0543340325,0</node>
<!-- ... 2286 like lines cut -->
		</Nodes>
		<Elements type="penta6" name="Part4">
			<elem id="1">1,2,3,574,575,576</elem>
			<elem id="2">1,3,4,574,576,577</elem>
			<elem id="3">1,4,5,574,577,578</elem>
			<elem id="4">1,5,6,574,578,579</elem>
			<elem id="5">1,6,7,574,579,580</elem>
			<elem id="6">1,7,8,574,580,581</elem>
			<elem id="7">1,8,9,574,581,582</elem>
			<elem id="8">1,9,10,574,582,583</elem>
			<elem id="9">1,10,11,574,583,584</elem>
			<elem id="10">1,11,12,574,584,585</elem>
			<elem id="11">1,12,13,574,585,586</elem>
			<elem id="12">1,13,14,574,586,587</elem>
			<elem id="13">1,14,15,574,587,588</elem>
			<elem id="14">1,15,16,574,588,589</elem>
			<elem id="15">1,16,17,574,589,590</elem>
			<elem id="16">1,17,18,574,590,591</elem>
			<elem id="17">1,18,19,574,591,592</elem>
			<elem id="18">1,19,20,574,592,593</elem>
			<elem id="19">1,20,21,574,593,594</elem>
			<elem id="20">1,21,22,574,594,595</elem>
<!-- ... 4 like lines cut -->
		</Elements>
		<Elements type="hex8" name="Part4__2">
			<elem id="25">2,26,27,3,575,599,600,576</elem>
			<elem id="26">3,27,28,4,576,600,601,577</elem>
			<elem id="27">4,28,29,5,577,601,602,578</elem>
			<elem id="28">5,29,30,6,578,602,603,579</elem>
			<elem id="29">6,30,31,7,579,603,604,580</elem>
			<elem id="30">7,31,32,8,580,604,605,581</elem>
			<elem id="31">8,32,33,9,581,605,606,582</elem>
			<elem id="32">9,33,34,10,582,606,607,583</elem>
			<elem id="33">10,34,35,11,583,607,608,584</elem>
			<elem id="34">11,35,36,12,584,608,609,585</elem>
			<elem id="35">12,36,37,13,585,609,610,586</elem>
			<elem id="36">13,37,38,14,586,610,611,587</elem>
			<elem id="37">14,38,39,15,587,611,612,588</elem>
			<elem id="38">15,39,40,16,588,612,613,589</elem>
			<elem id="39">16,40,41,17,589,613,614,590</elem>
			<elem id="40">17,41,42,18,590,614,615,591</elem>
			<elem id="41">18,42,43,19,591,615,616,592</elem>
			<elem id="42">19,43,44,20,592,616,617,593</elem>
			<elem id="43">20,44,45,21,593,617,618,594</elem>
			<elem id="44">21,45,46,22,594,618,619,595</elem>
<!-- ... 532 like lines cut -->
		</Elements>
		<Elements type="hex8" name="Part6">
			<elem id="577">1147,1163,1479,554,1155,1208,1502,1127</elem>
			<elem id="578">1163,1164,1480,1479,1208,1207,1503,1502</elem>
			<elem id="579">1164,1165,1481,1480,1207,1206,1504,1503</elem>
			<elem id="580">1165,1166,1482,1481,1206,1205,1505,1504</elem>
			<elem id="581">1166,1167,1483,1482,1205,1204,1506,1505</elem>
			<elem id="582">1167,1168,1484,1483,1204,1203,1507,1506</elem>
			<elem id="583">1168,1169,1485,1484,1203,1202,1508,1507</elem>
			<elem id="584">1169,1170,1486,1485,1202,1201,1509,1508</elem>
			<elem id="585">1170,1171,1487,1486,1201,1200,1510,1509</elem>
			<elem id="586">1171,1172,1488,1487,1200,1199,1511,1510</elem>
			<elem id="587">1172,1173,1489,1488,1199,1198,1512,1511</elem>
			<elem id="588">1173,1174,1490,1489,1198,1197,1513,1512</elem>
			<elem id="589">1174,1175,1491,1490,1197,1196,1514,1513</elem>
			<elem id="590">1175,1176,1492,1491,1196,1195,1515,1514</elem>
			<elem id="591">1176,1177,1493,1492,1195,1194,1516,1515</elem>
			<elem id="592">1177,1178,1494,1493,1194,1193,1517,1516</elem>
			<elem id="593">1178,1179,1495,1494,1193,1192,1518,1517</elem>
			<elem id="594">1179,1180,1496,1495,1192,1191,1519,1518</elem>
			<elem id="595">1180,1181,1497,1496,1191,1190,1520,1519</elem>
			<elem id="596">1181,1182,1498,1497,1190,1189,1521,1520</elem>
<!-- ... 556 like lines cut -->
		</Elements>
		<NodeSet name="InitialConcentration1">
			1, 2, 3, 4, 5, 6, 7, 8,
			9, 10, 11, 12, 13, 14, 15, 16,
			17, 18, 19, 20, 21, 22, 23, 24,
			25, 26, 27, 28, 29, 30, 31, 32,
			33, 34, 35, 36, 37, 38, 39, 40,
			41, 42, 43, 44, 45, 46, 47, 48,
			49, 50, 51, 52, 53, 54, 55, 56,
			57, 58, 59, 60, 61, 62, 63, 64,
			65, 66, 67, 68, 69, 70, 71, 72,
			73, 74, 75, 76, 77, 78, 79, 80,
			81, 82, 83, 84, 85, 86, 87, 88,
			89, 90, 91, 92, 93, 94, 95, 96,
			97, 98, 99, 100, 101, 102, 103, 104,
			105, 106, 107, 108, 109, 110, 111, 112,
			113, 114, 115, 116, 117, 118, 119, 120,
			121, 122, 123, 124, 125, 126, 127, 128,
			129, 130, 131, 132, 133, 134, 135, 136,
			137, 138, 139, 140, 141, 142, 143, 144,
			145, 146, 147, 148, 149, 150, 151, 152,
			153, 154, 155, 156, 157, 158, 159, 160,
<!-- ... 125 like lines cut -->
		</NodeSet>
		<NodeSet name="InitialConcentration2">
			554, 555, 556, 557, 558, 559, 560, 561,
			562, 563, 564, 565, 566, 567, 568, 569,
			570, 571, 572, 573, 1127, 1128, 1129, 1130,
			1131, 1132, 1133, 1134, 1135, 1136, 1137, 1138,
			1139, 1140, 1141, 1142, 1143, 1144, 1145, 1146,
			1147, 1148, 1149, 1150, 1151, 1152, 1153, 1154,
			1155, 1156, 1157, 1158, 1159, 1160, 1161, 1162,
			1163, 1164, 1165, 1166, 1167, 1168, 1169, 1170,
			1171, 1172, 1173, 1174, 1175, 1176, 1177, 1178,
			1179, 1180, 1181, 1182, 1183, 1184, 1185, 1186,
			1187, 1188, 1189, 1190, 1191, 1192, 1193, 1194,
			1195, 1196, 1197, 1198, 1199, 1200, 1201, 1202,
			1203, 1204, 1205, 1206, 1207, 1208, 1209, 1210,
			1211, 1212, 1213, 1214, 1215, 1216, 1217, 1218,
			1219, 1220, 1221, 1222, 1223, 1224, 1225, 1226,
			1227, 1228, 1229, 1230, 1231, 1232, 1233, 1234,
			1235, 1236, 1237, 1238, 1239, 1240, 1241, 1242,
			1243, 1244, 1245, 1246, 1247, 1248, 1249, 1250,
			1251, 1252, 1253, 1254, 1255, 1256, 1257, 1258,
			1259, 1260, 1261, 1262, 1263, 1264, 1265, 1266,
<!-- ... 130 like lines cut -->
		</NodeSet>
		<Surface name="ZeroFluidVelocity1">
			<tri3 id="1">1,3,2</tri3>
			<tri3 id="2">1,4,3</tri3>
			<tri3 id="3">1,5,4</tri3>
			<tri3 id="4">1,6,5</tri3>
			<tri3 id="5">1,7,6</tri3>
			<tri3 id="6">1,8,7</tri3>
			<tri3 id="7">1,9,8</tri3>
			<tri3 id="8">1,10,9</tri3>
			<tri3 id="9">1,11,10</tri3>
			<tri3 id="10">1,12,11</tri3>
			<tri3 id="11">1,13,12</tri3>
			<tri3 id="12">1,14,13</tri3>
			<tri3 id="13">1,15,14</tri3>
			<tri3 id="14">1,16,15</tri3>
			<tri3 id="15">1,17,16</tri3>
			<tri3 id="16">1,18,17</tri3>
			<tri3 id="17">1,19,18</tri3>
			<tri3 id="18">1,20,19</tri3>
			<tri3 id="19">1,21,20</tri3>
			<tri3 id="20">1,22,21</tri3>
<!-- ... 4 like lines cut -->
			<quad4 id="25">3,27,26,2</quad4>
			<quad4 id="26">4,28,27,3</quad4>
			<quad4 id="27">5,29,28,4</quad4>
			<quad4 id="28">6,30,29,5</quad4>
			<quad4 id="29">7,31,30,6</quad4>
			<quad4 id="30">8,32,31,7</quad4>
			<quad4 id="31">9,33,32,8</quad4>
			<quad4 id="32">10,34,33,9</quad4>
			<quad4 id="33">11,35,34,10</quad4>
			<quad4 id="34">12,36,35,11</quad4>
			<quad4 id="35">13,37,36,12</quad4>
			<quad4 id="36">14,38,37,13</quad4>
			<quad4 id="37">15,39,38,14</quad4>
			<quad4 id="38">16,40,39,15</quad4>
			<quad4 id="39">17,41,40,16</quad4>
			<quad4 id="40">18,42,41,17</quad4>
			<quad4 id="41">19,43,42,18</quad4>
			<quad4 id="42">20,44,43,19</quad4>
			<quad4 id="43">21,45,44,20</quad4>
			<quad4 id="44">22,46,45,21</quad4>
<!-- ... 532 like lines cut -->
			<tri3 id="577">574,575,576</tri3>
			<tri3 id="578">574,576,577</tri3>
			<tri3 id="579">574,577,578</tri3>
			<tri3 id="580">574,578,579</tri3>
			<tri3 id="581">574,579,580</tri3>
			<tri3 id="582">574,580,581</tri3>
			<tri3 id="583">574,581,582</tri3>
			<tri3 id="584">574,582,583</tri3>
			<tri3 id="585">574,583,584</tri3>
			<tri3 id="586">574,584,585</tri3>
			<tri3 id="587">574,585,586</tri3>
			<tri3 id="588">574,586,587</tri3>
			<tri3 id="589">574,587,588</tri3>
			<tri3 id="590">574,588,589</tri3>
			<tri3 id="591">574,589,590</tri3>
			<tri3 id="592">574,590,591</tri3>
			<tri3 id="593">574,591,592</tri3>
			<tri3 id="594">574,592,593</tri3>
			<tri3 id="595">574,593,594</tri3>
			<tri3 id="596">574,594,595</tri3>
<!-- ... 4 like lines cut -->
			<quad4 id="601">575,599,600,576</quad4>
			<quad4 id="602">576,600,601,577</quad4>
			<quad4 id="603">577,601,602,578</quad4>
			<quad4 id="604">578,602,603,579</quad4>
			<quad4 id="605">579,603,604,580</quad4>
			<quad4 id="606">580,604,605,581</quad4>
			<quad4 id="607">581,605,606,582</quad4>
			<quad4 id="608">582,606,607,583</quad4>
			<quad4 id="609">583,607,608,584</quad4>
			<quad4 id="610">584,608,609,585</quad4>
			<quad4 id="611">585,609,610,586</quad4>
			<quad4 id="612">586,610,611,587</quad4>
			<quad4 id="613">587,611,612,588</quad4>
			<quad4 id="614">588,612,613,589</quad4>
			<quad4 id="615">589,613,614,590</quad4>
			<quad4 id="616">590,614,615,591</quad4>
			<quad4 id="617">591,615,616,592</quad4>
			<quad4 id="618">592,616,617,593</quad4>
			<quad4 id="619">593,617,618,594</quad4>
			<quad4 id="620">594,618,619,595</quad4>
<!-- ... 1684 like lines cut -->
		</Surface>
		<Surface name="ZeroFluidVelocity2">
			<quad4 id="1">1148,1209,1218,1156</quad4>
			<quad4 id="2">1209,1210,1217,1218</quad4>
			<quad4 id="3">1210,1211,1216,1217</quad4>
			<quad4 id="4">1211,1212,1215,1216</quad4>
			<quad4 id="5">1212,1213,1214,1215</quad4>
			<quad4 id="6">1213,1150,1158,1214</quad4>
			<quad4 id="7">1150,1265,1274,1158</quad4>
			<quad4 id="8">1265,1266,1273,1274</quad4>
			<quad4 id="9">1266,1267,1272,1273</quad4>
			<quad4 id="10">1267,1268,1271,1272</quad4>
			<quad4 id="11">1268,1269,1270,1271</quad4>
			<quad4 id="12">1269,1152,1160,1270</quad4>
			<quad4 id="13">1152,1321,1330,1160</quad4>
			<quad4 id="14">1321,1322,1329,1330</quad4>
			<quad4 id="15">1322,1323,1328,1329</quad4>
			<quad4 id="16">1323,1324,1327,1328</quad4>
			<quad4 id="17">1324,1325,1326,1327</quad4>
			<quad4 id="18">1325,1154,1162,1326</quad4>
			<quad4 id="19">1154,1377,1386,1162</quad4>
			<quad4 id="20">1377,1378,1385,1386</quad4>
<!-- ... 4 like lines cut -->
		</Surface>
	</Mesh>
	<MeshDomains>
		<SolidDomain name="Part4" mat="Material1"/>
		<SolidDomain name="Part4__2" mat="Material1"/>
		<SolidDomain name="Part6" mat="Material1"/>
	</MeshDomains>
	<Boundary>
		<bc name="ZeroFluidVelocity1" node_set="@surface:ZeroFluidVelocity1" type="zero fluid velocity">
			<wx_dof>0</wx_dof>
			<wy_dof>0</wy_dof>
			<wz_dof>1</wz_dof>
		</bc>
		<bc name="ZeroFluidVelocity2" node_set="@surface:ZeroFluidVelocity2" type="zero fluid velocity">
			<wx_dof>1</wx_dof>
			<wy_dof>1</wy_dof>
			<wz_dof>0</wz_dof>
		</bc>
	</Boundary>
	<Initial>
		<ic name="InitialConcentration1" node_set="InitialConcentration1" type="initial concentration">
			<dof>c1</dof>
			<value>1</value>
		</ic>
		<ic name="InitialConcentration2" node_set="InitialConcentration2" type="initial concentration">
			<dof>c1</dof>
			<value>0</value>
		</ic>
	</Initial>
	<LoadData>
		<load_controller id="1" name="LC1" type="loadcurve">
			<interpolate>STEP</interpolate>
			<extend>CONSTANT</extend>
			<points>
				<pt>0,0</pt>
				<pt>0.01,0.001</pt>
				<pt>0.1,0.01</pt>
				<pt>1,0.1</pt>
				<pt>10,1</pt>
			</points>
		</load_controller>
	</LoadData>
	<Output>
		<plotfile type="febio">
			<var type="displacement"/>
			<var type="effective fluid pressure"/>
			<var type="effective solute concentration"/>
			<var type="fluid acceleration"/>
			<var type="fluid dilatation"/>
			<var type="fluid pressure"/>
			<var type="fluid rate of deformation"/>
			<var type="fluid stress"/>
			<var type="fluid velocity"/>
			<var type="fluid volume ratio"/>
			<var type="fluid vorticity"/>
			<var type="nodal fluid velocity"/>
			<var type="solute concentration"/>
			<var type="solute flux"/>
		</plotfile>
	</Output>
</febio_spec>
