<?xml version="1.0" encoding="ISO-8859-1"?>
<!--
A 10x10x1 block of PowellEyring fluid material undergoing Couette
flow, with up to
10000 units of relative xvelocity in 5 seconds (logarithmic
intervals every 0.2 seconds). 

Material parameters from
Cho YI and Kensey KR (1991). Biorheology, 28:241262.
-->
<febio_spec version="4.0">
	<Module type="fluid"/>
	<Control>
		<analysis>STEADY-STATE</analysis>
		<time_steps>25</time_steps>
		<step_size>0.2</step_size>
		<plot_zero_state>0</plot_zero_state>
		<plot_range>0,-1</plot_range>
		<plot_level>PLOT_MAJOR_ITRS</plot_level>
		<output_level>OUTPUT_MAJOR_ITRS</output_level>
		<plot_stride>1</plot_stride>
		<adaptor_re_solve>1</adaptor_re_solve>
		<solver type="fluid">
			<symmetric_stiffness>non-symmetric</symmetric_stiffness>
			<equation_scheme>block</equation_scheme>
			<equation_order>default</equation_order>
			<optimize_bw>0</optimize_bw>
			<lstol>0.9</lstol>
			<lsmin>0.01</lsmin>
			<lsiter>5</lsiter>
			<max_refs>25</max_refs>
			<check_zero_diagonal>0</check_zero_diagonal>
			<zero_diagonal_tol>0</zero_diagonal_tol>
			<force_partition>0</force_partition>
			<reform_each_time_step>1</reform_each_time_step>
			<reform_augment>0</reform_augment>
			<diverge_reform>1</diverge_reform>
			<min_residual>1e-20</min_residual>
			<max_residual>1e+20</max_residual>
			<vtol>0.001</vtol>
			<ftol>0</ftol>
			<rhoi>0</rhoi>
			<etol>0.01</etol>
			<rtol>0</rtol>
			<predictor>0</predictor>
			<min_volume_ratio>0</min_volume_ratio>
			<qn_method type="Broyden">
				<max_ups>0</max_ups>
				<max_buffer_size>0</max_buffer_size>
				<cycle_buffer>1</cycle_buffer>
				<cmax>100000</cmax>
			</qn_method>
		</solver>
	</Control>
	<Globals>
		<Constants>
			<T>0</T>
			<R>0</R>
			<Fc>0</Fc>
		</Constants>
	</Globals>
	<Material>
		<material id="1" name="Material1" type="fluid">
			<density>1.06</density>
			<k>2.2e+10</k>
			<viscous type="Powell-Eyring">
				<mu0>0.56</mu0>
				<mui>0.0345</mui>
				<lambda>5.383</lambda>
			</viscous>
		</material>
	</Material>
	<Mesh>
		<Nodes name="Object01">
			<node id="1">-0.5,-0.5,0</node>
			<node id="2">-0.5,-0.5,1</node>
			<node id="3">-0.5,-0.4,0</node>
			<node id="4">-0.5,-0.4,1</node>
			<node id="5">-0.5,-0.3,0</node>
			<node id="6">-0.5,-0.3,1</node>
			<node id="7">-0.5,-0.2,0</node>
			<node id="8">-0.5,-0.2,1</node>
			<node id="9">-0.5,-0.1,0</node>
			<node id="10">-0.5,-0.1,1</node>
			<node id="11">-0.5,-2.7755576e-17,0</node>
			<node id="12">-0.5,-2.7755576e-17,1</node>
			<node id="13">-0.5,0.1,0</node>
			<node id="14">-0.5,0.1,1</node>
			<node id="15">-0.5,0.2,0</node>
			<node id="16">-0.5,0.2,1</node>
			<node id="17">-0.5,0.3,0</node>
			<node id="18">-0.5,0.3,1</node>
			<node id="19">-0.5,0.4,0</node>
			<node id="20">-0.5,0.4,1</node>
<!-- ... 222 like lines cut -->
		</Nodes>
		<Elements type="hex8" name="Part1">
			<elem id="1">1,23,25,3,2,24,26,4</elem>
			<elem id="2">3,25,27,5,4,26,28,6</elem>
			<elem id="3">5,27,29,7,6,28,30,8</elem>
			<elem id="4">7,29,31,9,8,30,32,10</elem>
			<elem id="5">9,31,33,11,10,32,34,12</elem>
			<elem id="6">11,33,35,13,12,34,36,14</elem>
			<elem id="7">13,35,37,15,14,36,38,16</elem>
			<elem id="8">15,37,39,17,16,38,40,18</elem>
			<elem id="9">17,39,41,19,18,40,42,20</elem>
			<elem id="10">19,41,43,21,20,42,44,22</elem>
			<elem id="11">23,45,47,25,24,46,48,26</elem>
			<elem id="12">25,47,49,27,26,48,50,28</elem>
			<elem id="13">27,49,51,29,28,50,52,30</elem>
			<elem id="14">29,51,53,31,30,52,54,32</elem>
			<elem id="15">31,53,55,33,32,54,56,34</elem>
			<elem id="16">33,55,57,35,34,56,58,36</elem>
			<elem id="17">35,57,59,37,36,58,60,38</elem>
			<elem id="18">37,59,61,39,38,60,62,40</elem>
			<elem id="19">39,61,63,41,40,62,64,42</elem>
			<elem id="20">41,63,65,43,42,64,66,44</elem>
<!-- ... 80 like lines cut -->
		</Elements>
		<NodeSet name="FixedFluidVelocity01">
			1, 2, 3, 4, 5, 6, 7, 8,
			9, 10, 11, 12, 13, 14, 15, 16,
			17, 18, 19, 20, 21, 22, 23, 24,
			25, 26, 27, 28, 29, 30, 31, 32,
			33, 34, 35, 36, 37, 38, 39, 40,
			41, 42, 43, 44, 45, 46, 47, 48,
			49, 50, 51, 52, 53, 54, 55, 56,
			57, 58, 59, 60, 61, 62, 63, 64,
			65, 66, 67, 68, 69, 70, 71, 72,
			73, 74, 75, 76, 77, 78, 79, 80,
			81, 82, 83, 84, 85, 86, 87, 88,
			89, 90, 91, 92, 93, 94, 95, 96,
			97, 98, 99, 100, 101, 102, 103, 104,
			105, 106, 107, 108, 109, 110, 111, 112,
			113, 114, 115, 116, 117, 118, 119, 120,
			121, 122, 123, 124, 125, 126, 127, 128,
			129, 130, 131, 132, 133, 134, 135, 136,
			137, 138, 139, 140, 141, 142, 143, 144,
			145, 146, 147, 148, 149, 150, 151, 152,
			153, 154, 155, 156, 157, 158, 159, 160,
<!-- ... 41 like lines cut -->
		</NodeSet>
		<NodeSet name="FixedFluidVelocity02">
			1, 2, 23, 24, 45, 46, 67, 68,
			89, 90, 111, 112, 133, 134, 155, 156,
			177, 178, 199, 200, 221, 222
		</NodeSet>
		<NodeSet name="FixedFluidDilatation01">
			1, 2, 3, 4, 5, 6, 7, 8,
			9, 10, 11, 12, 13, 14, 15, 16,
			17, 18, 19, 20, 21, 22, 221, 222,
			223, 224, 225, 226, 227, 228, 229, 230,
			231, 232, 233, 234, 235, 236, 237, 238,
			239, 240, 241, 242, 1, 2, 3, 4,
			5, 6, 7, 8, 9, 10, 11, 12,
			13, 14, 15, 16, 17, 18, 19, 20,
			21, 22, 221, 222, 223, 224, 225, 226,
			227, 228, 229, 230, 231, 232, 233, 234,
			235, 236, 237, 238, 239, 240, 241, 242
		</NodeSet>
		<NodeSet name="FixedFluidVelocity03">
			1, 2, 3, 4, 5, 6, 7, 8,
			9, 10, 11, 12, 13, 14, 15, 16,
			17, 18, 19, 20, 21, 22, 43, 44,
			65, 66, 87, 88, 109, 110, 131, 132,
			153, 154, 175, 176, 197, 198, 219, 220,
			221, 222, 223, 224, 225, 226, 227, 228,
			229, 230, 231, 232, 233, 234, 235, 236,
			237, 238, 239, 240, 241, 242, 1, 2,
			3, 4, 5, 6, 7, 8, 9, 10,
			11, 12, 13, 14, 15, 16, 17, 18,
			19, 20, 21, 22, 43, 44, 65, 66,
			87, 88, 109, 110, 131, 132, 153, 154,
			175, 176, 197, 198, 219, 220, 221, 222,
			223, 224, 225, 226, 227, 228, 229, 230,
			231, 232, 233, 234, 235, 236, 237, 238,
			239, 240, 241, 242, 1, 2, 3, 4,
			5, 6, 7, 8, 9, 10, 11, 12,
			13, 14, 15, 16, 17, 18, 19, 20,
			21, 22, 43, 44, 65, 66, 87, 88,
			109, 110, 131, 132, 153, 154, 175, 176,
<!-- ... 4 like lines cut -->
		</NodeSet>
		<NodeSet name="PrescribedBC05">
			21, 22, 43, 44, 65, 66, 87, 88,
			109, 110, 131, 132, 153, 154, 175, 176,
			197, 198, 219, 220, 241, 242
		</NodeSet>
	</Mesh>
	<MeshDomains>
		<SolidDomain name="Part1" mat="Material1"/>
	</MeshDomains>
	<Boundary>
		<bc name="FixedFluidVelocity01" node_set="FixedFluidVelocity01" type="zero fluid velocity">
			<wx_dof>0</wx_dof>
			<wy_dof>0</wy_dof>
			<wz_dof>1</wz_dof>
		</bc>
		<bc name="FixedFluidVelocity02" node_set="FixedFluidVelocity02" type="zero fluid velocity">
			<wx_dof>1</wx_dof>
			<wy_dof>1</wy_dof>
			<wz_dof>0</wz_dof>
		</bc>
		<bc name="FixedFluidDilatation01" node_set="FixedFluidDilatation01" type="zero fluid dilatation"/>
		<bc name="FixedFluidVelocity03" node_set="FixedFluidVelocity03" type="zero fluid velocity">
			<wx_dof>0</wx_dof>
			<wy_dof>1</wy_dof>
			<wz_dof>0</wz_dof>
		</bc>
		<bc name="PrescribedBC05" node_set="PrescribedBC05" type="prescribed fluid velocity">
			<dof>wx</dof>
			<value lc="1">1</value>
			<relative>0</relative>
		</bc>
	</Boundary>
	<LoadData>
		<load_controller id="1" name="LC1" type="loadcurve">
			<interpolate>LINEAR</interpolate>
			<extend>CONSTANT</extend>
			<points>
				<pt>0,0</pt>
				<pt>0.2,0.01</pt>
				<pt>0.4,0.0177827941004</pt>
				<pt>0.6,0.0316227766017</pt>
				<pt>0.8,0.056234132519</pt>
				<pt>1,0.1</pt>
				<pt>1.2,0.177827941004</pt>
				<pt>1.4,0.316227766017</pt>
				<pt>1.6,0.56234132519</pt>
				<pt>1.8,1</pt>
				<pt>2,1.77827941004</pt>
				<pt>2.2,3.16227766017</pt>
				<pt>2.4,5.6234132519</pt>
				<pt>2.6,10</pt>
				<pt>2.8,17.7827941004</pt>
				<pt>3,31.6227766017</pt>
				<pt>3.2,56.234132519</pt>
				<pt>3.4,100</pt>
				<pt>3.6,177.827941004</pt>
				<pt>3.8,316.227766017</pt>
<!-- ... 6 like lines cut -->
			</points>
		</load_controller>
	</LoadData>
	<Output>
		<plotfile type="febio">
			<var type="displacement"/>
			<var type="fluid pressure"/>
			<var type="fluid acceleration"/>
			<var type="fluid dilatation"/>
			<var type="fluid rate of deformation"/>
			<var type="fluid shear viscosity"/>
			<var type="fluid stress"/>
			<var type="fluid velocity"/>
			<var type="fluid vorticity"/>
			<var type="nodal fluid velocity"/>
		</plotfile>
	</Output>
</febio_spec>
