<?xml version="1.0" encoding="ISO-8859-1"?>
<!--
Bottom half of a rectangular channel of Newtonian fluid material undergoing
poiseuille flow. It is tilted by 30 degrees and normal flow
constraint on inlet and outlet
-->
<febio_spec version="4.0">
	<Module type="fluid"/>
	<Control>
		<analysis>STEADY-STATE</analysis>
		<time_steps>1</time_steps>
		<step_size>1</step_size>
		<plot_zero_state>0</plot_zero_state>
		<plot_range>0,-1</plot_range>
		<plot_level>PLOT_MAJOR_ITRS</plot_level>
		<output_level>OUTPUT_MAJOR_ITRS</output_level>
		<plot_stride>1</plot_stride>
		<adaptor_re_solve>1</adaptor_re_solve>
		<solver type="fluid">
			<symmetric_stiffness>non-symmetric</symmetric_stiffness>
			<equation_scheme>block</equation_scheme>
			<equation_order>default</equation_order>
			<optimize_bw>0</optimize_bw>
			<lstol>0.9</lstol>
			<lsmin>0.01</lsmin>
			<lsiter>5</lsiter>
			<max_refs>15</max_refs>
			<check_zero_diagonal>0</check_zero_diagonal>
			<zero_diagonal_tol>0</zero_diagonal_tol>
			<force_partition>0</force_partition>
			<reform_each_time_step>1</reform_each_time_step>
			<reform_augment>0</reform_augment>
			<diverge_reform>1</diverge_reform>
			<min_residual>1e-20</min_residual>
			<max_residual>1e+20</max_residual>
			<vtol>0.001</vtol>
			<ftol>0.001</ftol>
			<rhoi>0</rhoi>
			<etol>0.01</etol>
			<rtol>0</rtol>
			<predictor>0</predictor>
			<min_volume_ratio>0</min_volume_ratio>
			<qn_method type="Broyden">
				<max_ups>0</max_ups>
				<max_buffer_size>0</max_buffer_size>
				<cycle_buffer>1</cycle_buffer>
				<cmax>100000</cmax>
			</qn_method>
		</solver>
	</Control>
	<Globals>
		<Constants>
			<T>0</T>
			<R>0</R>
			<Fc>0</Fc>
		</Constants>
	</Globals>
	<Material>
		<material id="1" name="Material1" type="fluid">
			<density>1</density>
			<k>1e+09</k>
			<viscous type="Newtonian fluid">
				<kappa>0</kappa>
				<mu>1</mu>
			</viscous>
		</material>
	</Material>
	<Mesh>
		<Nodes name="Object01">
			<node id="1">-2.0400635,-1.7165063,2.7755576e-17</node>
			<node id="2">-2.0400635,-1.7165063,0.25</node>
			<node id="3">-2.0475817,-1.7034845,2.7755576e-17</node>
			<node id="4">-2.0475817,-1.7034845,0.25</node>
			<node id="5">-2.0569793,-1.6872073,2.7755576e-17</node>
			<node id="6">-2.0569793,-1.6872073,0.25</node>
			<node id="7">-2.0687264,-1.6668607,2.7755576e-17</node>
			<node id="8">-2.0687264,-1.6668607,0.25</node>
			<node id="9">-2.0834103,-1.6414275,2.7755576e-17</node>
			<node id="10">-2.0834103,-1.6414275,0.25</node>
			<node id="11">-2.1017651,-1.609636,2.7755576e-17</node>
			<node id="12">-2.1017651,-1.609636,0.25</node>
			<node id="13">-2.1247087,-1.5698966,2.7755576e-17</node>
			<node id="14">-2.1247087,-1.5698966,0.25</node>
			<node id="15">-2.1533881,-1.5202224,2.7755576e-17</node>
			<node id="16">-2.1533881,-1.5202224,0.25</node>
			<node id="17">-2.1892374,-1.4581296,2.7755576e-17</node>
			<node id="18">-2.1892374,-1.4581296,0.25</node>
			<node id="19">-2.234049,-1.3805136,2.7755576e-17</node>
			<node id="20">-2.234049,-1.3805136,0.25</node>
<!-- ... 442 like lines cut -->
		</Nodes>
		<Elements type="hex8" name="Part1">
			<elem id="1">1,23,25,3,2,24,26,4</elem>
			<elem id="2">3,25,27,5,4,26,28,6</elem>
			<elem id="3">5,27,29,7,6,28,30,8</elem>
			<elem id="4">7,29,31,9,8,30,32,10</elem>
			<elem id="5">9,31,33,11,10,32,34,12</elem>
			<elem id="6">11,33,35,13,12,34,36,14</elem>
			<elem id="7">13,35,37,15,14,36,38,16</elem>
			<elem id="8">15,37,39,17,16,38,40,18</elem>
			<elem id="9">17,39,41,19,18,40,42,20</elem>
			<elem id="10">19,41,43,21,20,42,44,22</elem>
			<elem id="11">23,45,47,25,24,46,48,26</elem>
			<elem id="12">25,47,49,27,26,48,50,28</elem>
			<elem id="13">27,49,51,29,28,50,52,30</elem>
			<elem id="14">29,51,53,31,30,52,54,32</elem>
			<elem id="15">31,53,55,33,32,54,56,34</elem>
			<elem id="16">33,55,57,35,34,56,58,36</elem>
			<elem id="17">35,57,59,37,36,58,60,38</elem>
			<elem id="18">37,59,61,39,38,60,62,40</elem>
			<elem id="19">39,61,63,41,40,62,64,42</elem>
			<elem id="20">41,63,65,43,42,64,66,44</elem>
<!-- ... 180 like lines cut -->
		</Elements>
		<NodeSet name="FixedFluidVelocity01">
			1, 2, 23, 24, 45, 46, 67, 68,
			89, 90, 111, 112, 133, 134, 155, 156,
			177, 178, 199, 200, 221, 222, 243, 244,
			265, 266, 287, 288, 309, 310, 331, 332,
			353, 354, 375, 376, 397, 398, 419, 420,
			441, 442
		</NodeSet>
		<NodeSet name="FixedFluidVelocity02">
			1, 2, 3, 4, 5, 6, 7, 8,
			9, 10, 11, 12, 13, 14, 15, 16,
			17, 18, 19, 20, 21, 22, 23, 24,
			25, 26, 27, 28, 29, 30, 31, 32,
			33, 34, 35, 36, 37, 38, 39, 40,
			41, 42, 43, 44, 45, 46, 47, 48,
			49, 50, 51, 52, 53, 54, 55, 56,
			57, 58, 59, 60, 61, 62, 63, 64,
			65, 66, 67, 68, 69, 70, 71, 72,
			73, 74, 75, 76, 77, 78, 79, 80,
			81, 82, 83, 84, 85, 86, 87, 88,
			89, 90, 91, 92, 93, 94, 95, 96,
			97, 98, 99, 100, 101, 102, 103, 104,
			105, 106, 107, 108, 109, 110, 111, 112,
			113, 114, 115, 116, 117, 118, 119, 120,
			121, 122, 123, 124, 125, 126, 127, 128,
			129, 130, 131, 132, 133, 134, 135, 136,
			137, 138, 139, 140, 141, 142, 143, 144,
			145, 146, 147, 148, 149, 150, 151, 152,
			153, 154, 155, 156, 157, 158, 159, 160,
<!-- ... 96 like lines cut -->
		</NodeSet>
		<NodeSet name="FixedFluidDilatation01">
			441, 442, 443, 444, 445, 446, 447, 448,
			449, 450, 451, 452, 453, 454, 455, 456,
			457, 458, 459, 460, 461, 462
		</NodeSet>
		<NodeSet name="PrescribedBC06">
			1, 2, 3, 4, 5, 6, 7, 8,
			9, 10, 11, 12, 13, 14, 15, 16,
			17, 18, 19, 20, 21, 22
		</NodeSet>
		<Surface name="NormalFlowSurface01">
			<quad4 id="1">21,19,20,22</quad4>
			<quad4 id="2">19,17,18,20</quad4>
			<quad4 id="3">17,15,16,18</quad4>
			<quad4 id="4">15,13,14,16</quad4>
			<quad4 id="5">13,11,12,14</quad4>
			<quad4 id="6">11,9,10,12</quad4>
			<quad4 id="7">9,7,8,10</quad4>
			<quad4 id="8">7,5,6,8</quad4>
			<quad4 id="9">5,3,4,6</quad4>
			<quad4 id="10">3,1,2,4</quad4>
		</Surface>
		<Surface name="NormalFlowSurface02">
			<quad4 id="1">441,443,444,442</quad4>
			<quad4 id="2">443,445,446,444</quad4>
			<quad4 id="3">445,447,448,446</quad4>
			<quad4 id="4">447,449,450,448</quad4>
			<quad4 id="5">449,451,452,450</quad4>
			<quad4 id="6">451,453,454,452</quad4>
			<quad4 id="7">453,455,456,454</quad4>
			<quad4 id="8">455,457,458,456</quad4>
			<quad4 id="9">457,459,460,458</quad4>
			<quad4 id="10">459,461,462,460</quad4>
		</Surface>
	</Mesh>
	<MeshDomains>
		<SolidDomain name="Part1" mat="Material1"/>
	</MeshDomains>
	<Boundary>
		<bc name="FixedFluidVelocity01" node_set="FixedFluidVelocity01" type="zero fluid velocity">
			<wx_dof>1</wx_dof>
			<wy_dof>1</wy_dof>
			<wz_dof>1</wz_dof>
		</bc>
		<bc name="FixedFluidVelocity02" node_set="FixedFluidVelocity02" type="zero fluid velocity">
			<wx_dof>0</wx_dof>
			<wy_dof>0</wy_dof>
			<wz_dof>1</wz_dof>
		</bc>
		<bc name="FixedFluidDilatation01" node_set="FixedFluidDilatation01" type="zero fluid dilatation"/>
		<bc name="PrescribedBC06" node_set="PrescribedBC06" type="prescribed fluid dilatation">
			<value lc="1">-1</value>
			<relative>0</relative>
		</bc>
	</Boundary>
	<Constraints>
		<constraint name="NormalFlowSurface02" surface="NormalFlowSurface01" type="normal fluid flow">
			<laugon>LAGMULT</laugon>
			<tol>0.2</tol>
			<penalty>1000000</penalty>
			<rhs>0</rhs>
			<minaug>0</minaug>
			<maxaug>10</maxaug>
		</constraint>
		<constraint name="NormalFlowSurface03" surface="NormalFlowSurface02" type="normal fluid flow">
			<laugon>LAGMULT</laugon>
			<tol>0.2</tol>
			<penalty>1000000</penalty>
			<rhs>0</rhs>
			<minaug>0</minaug>
			<maxaug>10</maxaug>
		</constraint>
	</Constraints>
	<LoadData>
		<load_controller id="1" name="LC1" type="loadcurve">
			<interpolate>SMOOTH</interpolate>
			<extend>CONSTANT</extend>
			<points>
				<pt>0,0</pt>
				<pt>1,1e-06</pt>
			</points>
		</load_controller>
	</LoadData>
	<Output>
		<plotfile type="febio">
			<var type="displacement"/>
			<var type="fluid pressure"/>
			<var type="fluid acceleration"/>
			<var type="fluid dilatation"/>
			<var type="fluid rate of deformation"/>
			<var type="fluid stress"/>
			<var type="fluid velocity"/>
			<var type="fluid vorticity"/>
			<var type="nodal fluid velocity"/>
		</plotfile>
	</Output>
</febio_spec>
