<?xml version="1.0" encoding="ISO-8859-1"?>
<!--
24x24 biased lid driven cavity box problem RE=400. xvel prescribed on the
lid of the box to create vortex within. Uses must points to
shorten problem to reach steady state. Hex20G8 elements

Similar examples seen in results of
Ateshian GA, Shim JJ, Maas SA, Weiss JA. (2018) J Biomech Eng, 140(2):02100102100117.
-->
<febio_spec version="4.0">
	<Module type="fluid"/>
	<Control>
		<analysis>DYNAMIC</analysis>
		<time_steps>10000</time_steps>
		<step_size>0.1</step_size>
		<plot_zero_state>0</plot_zero_state>
		<plot_range>0,-1</plot_range>
		<plot_level>PLOT_MAJOR_ITRS</plot_level>
		<output_level>OUTPUT_MAJOR_ITRS</output_level>
		<plot_stride>1</plot_stride>
		<adaptor_re_solve>1</adaptor_re_solve>
		<time_stepper type="default">
			<max_retries>5</max_retries>
			<opt_iter>50</opt_iter>
			<dtmin>0.1</dtmin>
			<dtmax lc="1">0</dtmax>
			<aggressiveness>0</aggressiveness>
			<cutback>0.5</cutback>
			<dtforce>0</dtforce>
		</time_stepper>
		<solver type="fluid">
			<symmetric_stiffness>non-symmetric</symmetric_stiffness>
			<equation_scheme>block</equation_scheme>
			<equation_order>default</equation_order>
			<optimize_bw>0</optimize_bw>
			<lstol>0.9</lstol>
			<lsmin>0.01</lsmin>
			<lsiter>5</lsiter>
			<max_refs>2</max_refs>
			<check_zero_diagonal>0</check_zero_diagonal>
			<zero_diagonal_tol>0</zero_diagonal_tol>
			<force_partition>0</force_partition>
			<reform_each_time_step>0</reform_each_time_step>
			<reform_augment>0</reform_augment>
			<diverge_reform>0</diverge_reform>
			<min_residual>5e-16</min_residual>
			<max_residual>1e+20</max_residual>
			<vtol>0.001</vtol>
			<ftol>0.001</ftol>
			<rhoi>0</rhoi>
			<etol>0.01</etol>
			<rtol>0.001</rtol>
			<predictor>0</predictor>
			<min_volume_ratio>0</min_volume_ratio>
			<qn_method type="Broyden">
				<max_ups>50</max_ups>
				<max_buffer_size>0</max_buffer_size>
				<cycle_buffer>1</cycle_buffer>
				<cmax>100000</cmax>
			</qn_method>
		</solver>
	</Control>
	<Globals>
		<Constants>
			<T>0</T>
			<R>0</R>
			<Fc>0</Fc>
		</Constants>
	</Globals>
	<Material>
		<material id="1" name="Material1" type="fluid">
			<density>1</density>
			<k>1e+09</k>
			<viscous type="Newtonian fluid">
				<kappa>0</kappa>
				<mu>0.0025</mu>
			</viscous>
		</material>
	</Material>
	<Mesh>
		<Nodes name="Object01">
			<node id="1">0,0,0</node>
			<node id="2">0,0,0.025</node>
			<node id="3">0,0,0.05</node>
			<node id="4">0,0.0027149148,0</node>
			<node id="5">0,0.0027149148,0.05</node>
			<node id="6">0,0.0058370668,0</node>
			<node id="7">0,0.0058370668,0.025</node>
			<node id="8">0,0.0058370668,0.05</node>
			<node id="9">0,0.0094275417,0</node>
			<node id="10">0,0.0094275417,0.05</node>
			<node id="11">0,0.013556588,0</node>
			<node id="12">0,0.013556588,0.025</node>
			<node id="13">0,0.013556588,0.05</node>
			<node id="14">0,0.018304991,0</node>
			<node id="15">0,0.018304991,0.05</node>
			<node id="16">0,0.023765654,0</node>
			<node id="17">0,0.023765654,0.025</node>
			<node id="18">0,0.023765654,0.05</node>
			<node id="19">0,0.030045417,0</node>
			<node id="20">0,0.030045417,0.05</node>
<!-- ... 4255 like lines cut -->
		</Nodes>
		<Elements type="hex20" name="Part1">
			<elem id="1">1,174,179,6,3,176,181,8,124,177,126,4,125,178,127,5,2,175,180,7</elem>
			<elem id="2">6,179,184,11,8,181,186,13,126,182,128,9,127,183,129,10,7,180,185,12</elem>
			<elem id="3">11,184,189,16,13,186,191,18,128,187,130,14,129,188,131,15,12,185,190,17</elem>
			<elem id="4">16,189,194,21,18,191,196,23,130,192,132,19,131,193,133,20,17,190,195,22</elem>
			<elem id="5">21,194,199,26,23,196,201,28,132,197,134,24,133,198,135,25,22,195,200,27</elem>
			<elem id="6">26,199,204,31,28,201,206,33,134,202,136,29,135,203,137,30,27,200,205,32</elem>
			<elem id="7">31,204,209,36,33,206,211,38,136,207,138,34,137,208,139,35,32,205,210,37</elem>
			<elem id="8">36,209,214,41,38,211,216,43,138,212,140,39,139,213,141,40,37,210,215,42</elem>
			<elem id="9">41,214,219,46,43,216,221,48,140,217,142,44,141,218,143,45,42,215,220,47</elem>
			<elem id="10">46,219,224,51,48,221,226,53,142,222,144,49,143,223,145,50,47,220,225,52</elem>
			<elem id="11">51,224,229,56,53,226,231,58,144,227,146,54,145,228,147,55,52,225,230,57</elem>
			<elem id="12">56,229,234,61,58,231,236,63,146,232,148,59,147,233,149,60,57,230,235,62</elem>
			<elem id="13">61,234,239,66,63,236,241,68,148,237,150,64,149,238,151,65,62,235,240,67</elem>
			<elem id="14">66,239,244,71,68,241,246,73,150,242,152,69,151,243,153,70,67,240,245,72</elem>
			<elem id="15">71,244,249,76,73,246,251,78,152,247,154,74,153,248,155,75,72,245,250,77</elem>
			<elem id="16">76,249,254,81,78,251,256,83,154,252,156,79,155,253,157,80,77,250,255,82</elem>
			<elem id="17">81,254,259,86,83,256,261,88,156,257,158,84,157,258,159,85,82,255,260,87</elem>
			<elem id="18">86,259,264,91,88,261,266,93,158,262,160,89,159,263,161,90,87,260,265,92</elem>
			<elem id="19">91,264,269,96,93,266,271,98,160,267,162,94,161,268,163,95,92,265,270,97</elem>
			<elem id="20">96,269,274,101,98,271,276,103,162,272,164,99,163,273,165,100,97,270,275,102</elem>
<!-- ... 556 like lines cut -->
		</Elements>
		<NodeSet name="FixedFluidVelocity01">
			1, 2, 3, 4, 5, 6, 7, 8,
			9, 10, 11, 12, 13, 14, 15, 16,
			17, 18, 19, 20, 21, 22, 23, 24,
			25, 26, 27, 28, 29, 30, 31, 32,
			33, 34, 35, 36, 37, 38, 39, 40,
			41, 42, 43, 44, 45, 46, 47, 48,
			49, 50, 51, 52, 53, 54, 55, 56,
			57, 58, 59, 60, 61, 62, 63, 64,
			65, 66, 67, 68, 69, 70, 71, 72,
			73, 74, 75, 76, 77, 78, 79, 80,
			81, 82, 83, 84, 85, 86, 87, 88,
			89, 90, 91, 92, 93, 94, 95, 96,
			97, 98, 99, 100, 101, 102, 103, 104,
			105, 106, 107, 108, 109, 110, 111, 112,
			113, 114, 115, 116, 117, 118, 119, 120,
			121, 122, 123, 124, 125, 174, 175, 176,
			297, 298, 347, 348, 349, 470, 471, 520,
			521, 522, 643, 644, 693, 694, 695, 816,
			817, 866, 867, 868, 989, 990, 1039, 1040,
			1041, 1162, 1163, 1212, 1213, 1214, 1335, 1336,
<!-- ... 117 like lines cut -->
		</NodeSet>
		<NodeSet name="FixedFluidVelocity02">
			121, 122, 123, 172, 173, 294, 295, 296,
			345, 346, 467, 468, 469, 518, 519, 640,
			641, 642, 691, 692, 813, 814, 815, 864,
			865, 986, 987, 988, 1037, 1038, 1159, 1160,
			1161, 1210, 1211, 1332, 1333, 1334, 1383, 1384,
			1505, 1506, 1507, 1556, 1557, 1678, 1679, 1680,
			1729, 1730, 1851, 1852, 1853, 1902, 1903, 2024,
			2025, 2026, 2075, 2076, 2197, 2198, 2199, 2248,
			2249, 2370, 2371, 2372, 2421, 2422, 2543, 2544,
			2545, 2594, 2595, 2716, 2717, 2718, 2767, 2768,
			2889, 2890, 2891, 2940, 2941, 3062, 3063, 3064,
			3113, 3114, 3235, 3236, 3237, 3286, 3287, 3408,
			3409, 3410, 3459, 3460, 3581, 3582, 3583, 3632,
			3633, 3754, 3755, 3756, 3805, 3806, 3927, 3928,
			3929, 3978, 3979, 4100, 4101, 4102, 4151, 4152,
			4273, 4274, 4275
		</NodeSet>
		<NodeSet name="FixedFluidDilatation01">
			121, 122, 123, 4273, 4274, 4275, 121, 122,
			123, 4273, 4274, 4275
		</NodeSet>
		<NodeSet name="FixedFluidVelocity03">
			1, 3, 4, 5, 6, 8, 9, 10,
			11, 13, 14, 15, 16, 18, 19, 20,
			21, 23, 24, 25, 26, 28, 29, 30,
			31, 33, 34, 35, 36, 38, 39, 40,
			41, 43, 44, 45, 46, 48, 49, 50,
			51, 53, 54, 55, 56, 58, 59, 60,
			61, 63, 64, 65, 66, 68, 69, 70,
			71, 73, 74, 75, 76, 78, 79, 80,
			81, 83, 84, 85, 86, 88, 89, 90,
			91, 93, 94, 95, 96, 98, 99, 100,
			101, 103, 104, 105, 106, 108, 109, 110,
			111, 113, 114, 115, 116, 118, 119, 120,
			121, 123, 124, 125, 126, 127, 128, 129,
			130, 131, 132, 133, 134, 135, 136, 137,
			138, 139, 140, 141, 142, 143, 144, 145,
			146, 147, 148, 149, 150, 151, 152, 153,
			154, 155, 156, 157, 158, 159, 160, 161,
			162, 163, 164, 165, 166, 167, 168, 169,
			170, 171, 172, 173, 174, 176, 177, 178,
			179, 181, 182, 183, 184, 186, 187, 188,
<!-- ... 893 like lines cut -->
		</NodeSet>
		<NodeSet name="PrescribedBC130">
			121, 122, 123, 172, 173, 294, 295, 296,
			345, 346, 467, 468, 469, 518, 519, 640,
			641, 642, 691, 692, 813, 814, 815, 864,
			865, 986, 987, 988, 1037, 1038, 1159, 1160,
			1161, 1210, 1211, 1332, 1333, 1334, 1383, 1384,
			1505, 1506, 1507, 1556, 1557, 1678, 1679, 1680,
			1729, 1730, 1851, 1852, 1853, 1902, 1903, 2024,
			2025, 2026, 2075, 2076, 2197, 2198, 2199, 2248,
			2249, 2370, 2371, 2372, 2421, 2422, 2543, 2544,
			2545, 2594, 2595, 2716, 2717, 2718, 2767, 2768,
			2889, 2890, 2891, 2940, 2941, 3062, 3063, 3064,
			3113, 3114, 3235, 3236, 3237, 3286, 3287, 3408,
			3409, 3410, 3459, 3460, 3581, 3582, 3583, 3632,
			3633, 3754, 3755, 3756, 3805, 3806, 3927, 3928,
			3929, 3978, 3979, 4100, 4101, 4102, 4151, 4152,
			4273, 4274, 4275
		</NodeSet>
	</Mesh>
	<MeshDomains>
		<SolidDomain name="Part1" mat="Material1"/>
	</MeshDomains>
	<Boundary>
		<bc name="FixedFluidVelocity01" node_set="FixedFluidVelocity01" type="zero fluid velocity">
			<wx_dof>1</wx_dof>
			<wy_dof>1</wy_dof>
			<wz_dof>1</wz_dof>
		</bc>
		<bc name="FixedFluidVelocity02" node_set="FixedFluidVelocity02" type="zero fluid velocity">
			<wx_dof>1</wx_dof>
			<wy_dof>0</wy_dof>
			<wz_dof>1</wz_dof>
		</bc>
		<bc name="FixedFluidDilatation01" node_set="FixedFluidDilatation01" type="zero fluid dilatation"/>
		<bc name="FixedFluidVelocity03" node_set="FixedFluidVelocity03" type="zero fluid velocity">
			<wx_dof>0</wx_dof>
			<wy_dof>0</wy_dof>
			<wz_dof>1</wz_dof>
		</bc>
		<bc name="PrescribedBC130" node_set="PrescribedBC130" type="prescribed fluid velocity">
			<dof>wx</dof>
			<value lc="2">1</value>
			<relative>0</relative>
		</bc>
	</Boundary>
	<LoadData>
		<load_controller id="1" name="LC1" type="loadcurve">
			<interpolate>STEP</interpolate>
			<extend>CONSTANT</extend>
			<points>
				<pt>0,0</pt>
				<pt>1,0.1</pt>
				<pt>2,0.1</pt>
				<pt>10,1</pt>
				<pt>100,10</pt>
				<pt>1000,100</pt>
			</points>
		</load_controller>
		<load_controller id="2" name="LC2" type="loadcurve">
			<interpolate>SMOOTH</interpolate>
			<extend>CONSTANT</extend>
			<points>
				<pt>0,0</pt>
				<pt>1,1</pt>
			</points>
		</load_controller>
	</LoadData>
	<Output>
		<plotfile type="febio">
			<var type="displacement"/>
			<var type="fluid pressure"/>
			<var type="fluid acceleration"/>
			<var type="fluid dilatation"/>
			<var type="fluid rate of deformation"/>
			<var type="fluid stress"/>
			<var type="fluid velocity"/>
			<var type="fluid vorticity"/>
			<var type="nodal fluid velocity"/>
		</plotfile>
	</Output>
</febio_spec>
