<?xml version="1.0" encoding="ISO-8859-1"?>
<!--
"Parabolic normal flow through 2D rectangular domain
-->
<febio_spec version="4.0">
	<Module type="fluid"/>
	<Control>
		<analysis>DYNAMIC</analysis>
		<time_steps>100</time_steps>
		<step_size>0.1</step_size>
		<plot_zero_state>0</plot_zero_state>
		<plot_range>0,-1</plot_range>
		<plot_level>PLOT_MAJOR_ITRS</plot_level>
		<output_level>OUTPUT_MAJOR_ITRS</output_level>
		<plot_stride>1</plot_stride>
		<adaptor_re_solve>1</adaptor_re_solve>
		<time_stepper type="default">
			<max_retries>5</max_retries>
			<opt_iter>50</opt_iter>
			<dtmin>0.01</dtmin>
			<dtmax>0.1</dtmax>
			<aggressiveness>0</aggressiveness>
			<cutback>0.5</cutback>
			<dtforce>0</dtforce>
		</time_stepper>
		<solver type="fluid">
			<symmetric_stiffness>non-symmetric</symmetric_stiffness>
			<equation_scheme>block</equation_scheme>
			<equation_order>default</equation_order>
			<optimize_bw>0</optimize_bw>
			<lstol>0.9</lstol>
			<lsmin>0.01</lsmin>
			<lsiter>5</lsiter>
			<max_refs>5</max_refs>
			<check_zero_diagonal>0</check_zero_diagonal>
			<zero_diagonal_tol>0</zero_diagonal_tol>
			<force_partition>0</force_partition>
			<reform_each_time_step>0</reform_each_time_step>
			<reform_augment>0</reform_augment>
			<diverge_reform>0</diverge_reform>
			<min_residual>1e-20</min_residual>
			<max_residual>1e+20</max_residual>
			<vtol>0.001</vtol>
			<ftol>0.001</ftol>
			<rhoi>0</rhoi>
			<etol>0.01</etol>
			<rtol>0.001</rtol>
			<predictor>0</predictor>
			<min_volume_ratio>0</min_volume_ratio>
			<qn_method type="Broyden">
				<max_ups>50</max_ups>
				<max_buffer_size>0</max_buffer_size>
				<cycle_buffer>1</cycle_buffer>
				<cmax>100000</cmax>
			</qn_method>
		</solver>
	</Control>
	<Globals>
		<Constants>
			<T>0</T>
			<R>0</R>
			<Fc>0</Fc>
		</Constants>
	</Globals>
	<Material>
		<material id="1" name="Material1" type="fluid">
			<density>1</density>
			<k>1e+09</k>
			<viscous type="Newtonian fluid">
				<kappa>0</kappa>
				<mu>0.001</mu>
			</viscous>
		</material>
	</Material>
	<Mesh>
		<Nodes name="Object1">
			<node id="1">-2.5,-1,0</node>
			<node id="2">-2.5,-1,0.25</node>
			<node id="3">-2.5,-0.97653656,0</node>
			<node id="4">-2.5,-0.97653656,0.25</node>
			<node id="5">-2.5,-0.946034089,0</node>
			<node id="6">-2.5,-0.946034089,0.25</node>
			<node id="7">-2.5,-0.906380876,0</node>
			<node id="8">-2.5,-0.906380876,0.25</node>
			<node id="9">-2.5,-0.854831699,0</node>
			<node id="10">-2.5,-0.854831699,0.25</node>
			<node id="11">-2.5,-0.787817769,0</node>
			<node id="12">-2.5,-0.787817769,0.25</node>
			<node id="13">-2.5,-0.700699661,0</node>
			<node id="14">-2.5,-0.700699661,0.25</node>
			<node id="15">-2.5,-0.587446119,0</node>
			<node id="16">-2.5,-0.587446119,0.25</node>
			<node id="17">-2.5,-0.440216515,0</node>
			<node id="18">-2.5,-0.440216515,0.25</node>
			<node id="19">-2.5,-0.24881803,0</node>
			<node id="20">-2.5,-0.24881803,0.25</node>
<!-- ... 2122 like lines cut -->
		</Nodes>
		<Elements type="hex8" name="Part1">
			<elem id="1">1,43,45,3,2,44,46,4</elem>
			<elem id="2">3,45,47,5,4,46,48,6</elem>
			<elem id="3">5,47,49,7,6,48,50,8</elem>
			<elem id="4">7,49,51,9,8,50,52,10</elem>
			<elem id="5">9,51,53,11,10,52,54,12</elem>
			<elem id="6">11,53,55,13,12,54,56,14</elem>
			<elem id="7">13,55,57,15,14,56,58,16</elem>
			<elem id="8">15,57,59,17,16,58,60,18</elem>
			<elem id="9">17,59,61,19,18,60,62,20</elem>
			<elem id="10">19,61,63,21,20,62,64,22</elem>
			<elem id="11">21,63,65,23,22,64,66,24</elem>
			<elem id="12">23,65,67,25,24,66,68,26</elem>
			<elem id="13">25,67,69,27,26,68,70,28</elem>
			<elem id="14">27,69,71,29,28,70,72,30</elem>
			<elem id="15">29,71,73,31,30,72,74,32</elem>
			<elem id="16">31,73,75,33,32,74,76,34</elem>
			<elem id="17">33,75,77,35,34,76,78,36</elem>
			<elem id="18">35,77,79,37,36,78,80,38</elem>
			<elem id="19">37,79,81,39,38,80,82,40</elem>
			<elem id="20">39,81,83,41,40,82,84,42</elem>
<!-- ... 980 like lines cut -->
		</Elements>
		<Surface name="FixedFluidVelocity1">
			<quad4 id="1">1,43,44,2</quad4>
			<quad4 id="2">43,85,86,44</quad4>
			<quad4 id="3">85,127,128,86</quad4>
			<quad4 id="4">127,169,170,128</quad4>
			<quad4 id="5">169,211,212,170</quad4>
			<quad4 id="6">211,253,254,212</quad4>
			<quad4 id="7">253,295,296,254</quad4>
			<quad4 id="8">295,337,338,296</quad4>
			<quad4 id="9">337,379,380,338</quad4>
			<quad4 id="10">379,421,422,380</quad4>
			<quad4 id="11">421,463,464,422</quad4>
			<quad4 id="12">463,505,506,464</quad4>
			<quad4 id="13">505,547,548,506</quad4>
			<quad4 id="14">547,589,590,548</quad4>
			<quad4 id="15">589,631,632,590</quad4>
			<quad4 id="16">631,673,674,632</quad4>
			<quad4 id="17">673,715,716,674</quad4>
			<quad4 id="18">715,757,758,716</quad4>
			<quad4 id="19">757,799,800,758</quad4>
			<quad4 id="20">799,841,842,800</quad4>
<!-- ... 80 like lines cut -->
		</Surface>
		<Surface name="FixedFluidVelocity2">
			<quad4 id="1">41,83,81,39</quad4>
			<quad4 id="2">39,81,79,37</quad4>
			<quad4 id="3">37,79,77,35</quad4>
			<quad4 id="4">35,77,75,33</quad4>
			<quad4 id="5">33,75,73,31</quad4>
			<quad4 id="6">31,73,71,29</quad4>
			<quad4 id="7">29,71,69,27</quad4>
			<quad4 id="8">27,69,67,25</quad4>
			<quad4 id="9">25,67,65,23</quad4>
			<quad4 id="10">23,65,63,21</quad4>
			<quad4 id="11">21,63,61,19</quad4>
			<quad4 id="12">19,61,59,17</quad4>
			<quad4 id="13">17,59,57,15</quad4>
			<quad4 id="14">15,57,55,13</quad4>
			<quad4 id="15">13,55,53,11</quad4>
			<quad4 id="16">11,53,51,9</quad4>
			<quad4 id="17">9,51,49,7</quad4>
			<quad4 id="18">7,49,47,5</quad4>
			<quad4 id="19">5,47,45,3</quad4>
			<quad4 id="20">3,45,43,1</quad4>
<!-- ... 1980 like lines cut -->
		</Surface>
		<Surface name="FixedFluidDilatation1">
			<quad4 id="1">2101,2103,2104,2102</quad4>
			<quad4 id="2">2103,2105,2106,2104</quad4>
			<quad4 id="3">2105,2107,2108,2106</quad4>
			<quad4 id="4">2107,2109,2110,2108</quad4>
			<quad4 id="5">2109,2111,2112,2110</quad4>
			<quad4 id="6">2111,2113,2114,2112</quad4>
			<quad4 id="7">2113,2115,2116,2114</quad4>
			<quad4 id="8">2115,2117,2118,2116</quad4>
			<quad4 id="9">2117,2119,2120,2118</quad4>
			<quad4 id="10">2119,2121,2122,2120</quad4>
			<quad4 id="11">2121,2123,2124,2122</quad4>
			<quad4 id="12">2123,2125,2126,2124</quad4>
			<quad4 id="13">2125,2127,2128,2126</quad4>
			<quad4 id="14">2127,2129,2130,2128</quad4>
			<quad4 id="15">2129,2131,2132,2130</quad4>
			<quad4 id="16">2131,2133,2134,2132</quad4>
			<quad4 id="17">2133,2135,2136,2134</quad4>
			<quad4 id="18">2135,2137,2138,2136</quad4>
			<quad4 id="19">2137,2139,2140,2138</quad4>
			<quad4 id="20">2139,2141,2142,2140</quad4>
		</Surface>
		<Surface name="FluidNormalVelocity1">
			<quad4 id="1">41,39,40,42</quad4>
			<quad4 id="2">39,37,38,40</quad4>
			<quad4 id="3">37,35,36,38</quad4>
			<quad4 id="4">35,33,34,36</quad4>
			<quad4 id="5">33,31,32,34</quad4>
			<quad4 id="6">31,29,30,32</quad4>
			<quad4 id="7">29,27,28,30</quad4>
			<quad4 id="8">27,25,26,28</quad4>
			<quad4 id="9">25,23,24,26</quad4>
			<quad4 id="10">23,21,22,24</quad4>
			<quad4 id="11">21,19,20,22</quad4>
			<quad4 id="12">19,17,18,20</quad4>
			<quad4 id="13">17,15,16,18</quad4>
			<quad4 id="14">15,13,14,16</quad4>
			<quad4 id="15">13,11,12,14</quad4>
			<quad4 id="16">11,9,10,12</quad4>
			<quad4 id="17">9,7,8,10</quad4>
			<quad4 id="18">7,5,6,8</quad4>
			<quad4 id="19">5,3,4,6</quad4>
			<quad4 id="20">3,1,2,4</quad4>
		</Surface>
	</Mesh>
	<MeshDomains>
		<SolidDomain name="Part1" mat="Material1"/>
	</MeshDomains>
	<Boundary>
		<bc name="FixedFluidVelocity1" node_set="@surface:FixedFluidVelocity1" type="zero fluid velocity">
			<wx_dof>1</wx_dof>
			<wy_dof>1</wy_dof>
			<wz_dof>0</wz_dof>
		</bc>
		<bc name="FixedFluidVelocity2" node_set="@surface:FixedFluidVelocity2" type="zero fluid velocity">
			<wx_dof>0</wx_dof>
			<wy_dof>0</wy_dof>
			<wz_dof>1</wz_dof>
		</bc>
		<bc name="FixedFluidDilatation1" node_set="@surface:FixedFluidDilatation1" type="zero fluid dilatation"/>
	</Boundary>
	<Loads>
		<surface_load name="FluidNormalVelocity1" surface="FluidNormalVelocity1" type="fluid normal velocity">
			<velocity lc="1">-1</velocity>
			<prescribe_nodal_velocities>1</prescribe_nodal_velocities>
			<parabolic>1</parabolic>
			<prescribe_rim_pressure>1</prescribe_rim_pressure>
		</surface_load>
	</Loads>
	<LoadData>
		<load_controller id="1" name="LC1" type="loadcurve">
			<interpolate>SMOOTH</interpolate>
			<extend>CONSTANT</extend>
			<points>
				<pt>0,0</pt>
				<pt>1,1</pt>
			</points>
		</load_controller>
	</LoadData>
	<Output>
		<plotfile type="febio">
			<var type="displacement"/>
			<var type="fluid acceleration"/>
			<var type="fluid dilatation"/>
			<var type="fluid pressure"/>
			<var type="fluid rate of deformation"/>
			<var type="fluid stress"/>
			<var type="fluid velocity"/>
			<var type="fluid volume ratio"/>
			<var type="fluid vorticity"/>
			<var type="nodal fluid velocity"/>
		</plotfile>
	</Output>
</febio_spec>
