<?xml version="1.0" encoding="ISO-8859-1"?>
<!--
Blood flow through wedge with pressure at inlet and outlet. Newtonian fluid with MooneyRivlin solid.
-->
<febio_spec version="4.0">
	<Module type="fluid-FSI"/>
	<Control>
		<analysis>DYNAMIC</analysis>
		<time_steps>200</time_steps>
		<!-- <time_steps>400</time_steps> -->
		<step_size>0.001</step_size>
		<plot_zero_state>0</plot_zero_state>
		<plot_range>0,-1</plot_range>
		<plot_level>PLOT_MAJOR_ITRS</plot_level>
		<output_level>OUTPUT_MAJOR_ITRS</output_level>
		<plot_stride>1</plot_stride>
		<adaptor_re_solve>1</adaptor_re_solve>
		<time_stepper type="default">
			<max_retries>5</max_retries>
			<opt_iter>50</opt_iter>
			<dtmin>0.0001</dtmin>
			<dtmax>0.001</dtmax>
			<aggressiveness>0</aggressiveness>
			<cutback>0.5</cutback>
			<dtforce>0</dtforce>
		</time_stepper>
		<solver type="fluid-FSI">
			<symmetric_stiffness>non-symmetric</symmetric_stiffness>
			<equation_scheme>staggered</equation_scheme>
			<equation_order>default</equation_order>
			<optimize_bw>0</optimize_bw>
			<lstol>0.9</lstol>
			<lsmin>0.01</lsmin>
			<lsiter>5</lsiter>
			<max_refs>10</max_refs>
			<check_zero_diagonal>0</check_zero_diagonal>
			<zero_diagonal_tol>0</zero_diagonal_tol>
			<force_partition>0</force_partition>
			<reform_each_time_step>0</reform_each_time_step>
			<reform_augment>0</reform_augment>
			<diverge_reform>0</diverge_reform>
			<min_residual>1e-20</min_residual>
			<max_residual>1e+20</max_residual>
			<dtol>0.001</dtol>
			<vtol>0.001</vtol>
			<ftol>0.001</ftol>
			<etol>0.01</etol>
			<rtol>0.001</rtol>
			<rhoi>0</rhoi>
			<predictor>0</predictor>
			<min_volume_ratio>0</min_volume_ratio>
			<order>2</order>
			<qn_method type="Broyden">
				<max_ups>25</max_ups>
				<max_buffer_size>0</max_buffer_size>
				<cycle_buffer>1</cycle_buffer>
				<cmax>100000</cmax>
			</qn_method>
		</solver>
	</Control>
	<Globals>
		<Constants>
			<T>0</T>
			<R>0</R>
			<Fc>0</Fc>
		</Constants>
	</Globals>
	<Material>
		<material id="1" name="Fluid" type="fluid-FSI">
			<solid type="neo-Hookean">
				<density>0</density>
				<E>0.001</E>
				<v>0</v>
			</solid>
			<fluid>
				<density>1060</density>
				<k>2.2e+09</k>
				<viscous type="Newtonian fluid">
					<kappa>0</kappa>
					<mu>0.004</mu>
				</viscous>
			</fluid>
		</material>
		<material id="2" name="Solid" type="Mooney-Rivlin">
			<density>1000</density>
			<k>5e+07</k>
			<pressure_model>default</pressure_model>
			<c1>100000</c1>
			<c2>0</c2>
		</material>
	</Material>
	<Mesh>
		<Nodes name="Object01">
			<node id="1">0,0,0</node>
			<node id="2">0.00081067936,0,0</node>
			<node id="3">0.00080956836,4.2427679e-05,0</node>
			<node id="4">0.0014186889,0,0</node>
			<node id="5">0.0014167446,7.4248438e-05,0</node>
			<node id="6">0.001874696,0,0</node>
			<node id="7">0.0018721268,9.8114008e-05,0</node>
			<node id="8">0.0022167014,0,0</node>
			<node id="9">0.0022136635,0.00011601318,0</node>
			<node id="10">0.0024732054,0,0</node>
			<node id="11">0.002469816,0.00012943757,0</node>
			<node id="12">0.0026655834,0,0</node>
			<node id="13">0.0026619303,0.00013950585,0</node>
			<node id="14">0.0028098669,0,0</node>
			<node id="15">0.0028060161,0.00014705707,0</node>
			<node id="16">0.0029180796,0,0</node>
			<node id="17">0.0029140804,0.00015272048,0</node>
			<node id="18">0.002999239,0,0</node>
			<node id="19">0.0029951287,0.00015696804,0</node>
			<node id="20">0.0030601086,0,0</node>
<!-- ... 1333 like lines cut -->
		</Nodes>
		<Elements type="penta6" name="Part1">
			<elem id="1">1,2,3,24,25,26</elem>
			<elem id="2">24,25,26,49,50,51</elem>
			<elem id="3">49,50,51,74,75,76</elem>
			<elem id="4">74,75,76,99,100,101</elem>
			<elem id="5">99,100,101,124,125,126</elem>
			<elem id="6">124,125,126,149,150,151</elem>
			<elem id="7">149,150,151,174,175,176</elem>
			<elem id="8">174,175,176,199,200,201</elem>
			<elem id="9">199,200,201,224,225,226</elem>
			<elem id="10">224,225,226,249,250,251</elem>
			<elem id="11">249,250,251,274,275,276</elem>
			<elem id="12">274,275,276,299,300,301</elem>
			<elem id="13">299,300,301,324,325,326</elem>
			<elem id="14">324,325,326,349,350,351</elem>
			<elem id="15">349,350,351,374,375,376</elem>
			<elem id="16">374,375,376,399,400,401</elem>
			<elem id="17">399,400,401,424,425,426</elem>
			<elem id="18">424,425,426,449,450,451</elem>
			<elem id="19">449,450,451,474,475,476</elem>
			<elem id="20">474,475,476,499,500,501</elem>
<!-- ... 20 like lines cut -->
		</Elements>
		<Elements type="hex8" name="Part1__2">
			<elem id="41">2,4,5,3,25,27,28,26</elem>
			<elem id="42">4,6,7,5,27,29,30,28</elem>
			<elem id="43">6,8,9,7,29,31,32,30</elem>
			<elem id="44">8,10,11,9,31,33,34,32</elem>
			<elem id="45">10,12,13,11,33,35,36,34</elem>
			<elem id="46">12,14,15,13,35,37,38,36</elem>
			<elem id="47">14,16,17,15,37,39,40,38</elem>
			<elem id="48">16,18,19,17,39,41,42,40</elem>
			<elem id="49">18,20,21,19,41,43,44,42</elem>
			<elem id="50">20,22,23,21,43,45,46,44</elem>
			<elem id="51">22,1022,1027,23,45,47,48,46</elem>
			<elem id="52">25,27,28,26,50,52,53,51</elem>
			<elem id="53">27,29,30,28,52,54,55,53</elem>
			<elem id="54">29,31,32,30,54,56,57,55</elem>
			<elem id="55">31,33,34,32,56,58,59,57</elem>
			<elem id="56">33,35,36,34,58,60,61,59</elem>
			<elem id="57">35,37,38,36,60,62,63,61</elem>
			<elem id="58">37,39,40,38,62,64,65,63</elem>
			<elem id="59">39,41,42,40,64,66,67,65</elem>
			<elem id="60">41,43,44,42,66,68,69,67</elem>
<!-- ... 420 like lines cut -->
		</Elements>
		<Elements type="hex8" name="Part4">
			<elem id="481">1022,1023,1028,1027,47,1032,1036,48</elem>
			<elem id="482">1023,1024,1029,1028,1032,1033,1037,1036</elem>
			<elem id="483">1024,1025,1030,1029,1033,1034,1038,1037</elem>
			<elem id="484">1025,1026,1031,1030,1034,1035,1039,1038</elem>
			<elem id="485">47,1032,1036,48,72,1040,1044,73</elem>
			<elem id="486">1032,1033,1037,1036,1040,1041,1045,1044</elem>
			<elem id="487">1033,1034,1038,1037,1041,1042,1046,1045</elem>
			<elem id="488">1034,1035,1039,1038,1042,1043,1047,1046</elem>
			<elem id="489">72,1040,1044,73,97,1048,1052,98</elem>
			<elem id="490">1040,1041,1045,1044,1048,1049,1053,1052</elem>
			<elem id="491">1041,1042,1046,1045,1049,1050,1054,1053</elem>
			<elem id="492">1042,1043,1047,1046,1050,1051,1055,1054</elem>
			<elem id="493">97,1048,1052,98,122,1056,1060,123</elem>
			<elem id="494">1048,1049,1053,1052,1056,1057,1061,1060</elem>
			<elem id="495">1049,1050,1054,1053,1057,1058,1062,1061</elem>
			<elem id="496">1050,1051,1055,1054,1058,1059,1063,1062</elem>
			<elem id="497">122,1056,1060,123,147,1064,1068,148</elem>
			<elem id="498">1056,1057,1061,1060,1064,1065,1069,1068</elem>
			<elem id="499">1057,1058,1062,1061,1065,1066,1070,1069</elem>
			<elem id="500">1058,1059,1063,1062,1066,1067,1071,1070</elem>
<!-- ... 140 like lines cut -->
		</Elements>
		<NodeSet name="FixedDisplacement4">
			1, 24, 49, 74, 99, 124, 149, 174,
			199, 224, 249, 274, 299, 324, 349, 374,
			399, 424, 449, 474, 499, 524, 549, 574,
			599, 624, 649, 674, 699, 724, 749, 774,
			799, 824, 849, 874, 899, 924, 949, 974,
			999
		</NodeSet>
		<NodeSet name="FixedFluidVelocity2">
			1, 24, 49, 74, 99, 124, 149, 174,
			199, 224, 249, 274, 299, 324, 349, 374,
			399, 424, 449, 474, 499, 524, 549, 574,
			599, 624, 649, 674, 699, 724, 749, 774,
			799, 824, 849, 874, 899, 924, 949, 974,
			999
		</NodeSet>
		<Surface name="FixedDisplacement5">
			<quad4 id="1">1,2,25,24</quad4>
			<quad4 id="2">24,25,50,49</quad4>
			<quad4 id="3">49,50,75,74</quad4>
			<quad4 id="4">74,75,100,99</quad4>
			<quad4 id="5">99,100,125,124</quad4>
			<quad4 id="6">124,125,150,149</quad4>
			<quad4 id="7">149,150,175,174</quad4>
			<quad4 id="8">174,175,200,199</quad4>
			<quad4 id="9">199,200,225,224</quad4>
			<quad4 id="10">224,225,250,249</quad4>
			<quad4 id="11">249,250,275,274</quad4>
			<quad4 id="12">274,275,300,299</quad4>
			<quad4 id="13">299,300,325,324</quad4>
			<quad4 id="14">324,325,350,349</quad4>
			<quad4 id="15">349,350,375,374</quad4>
			<quad4 id="16">374,375,400,399</quad4>
			<quad4 id="17">399,400,425,424</quad4>
			<quad4 id="18">424,425,450,449</quad4>
			<quad4 id="19">449,450,475,474</quad4>
			<quad4 id="20">474,475,500,499</quad4>
<!-- ... 620 like lines cut -->
		</Surface>
		<Surface name="FixedDisplacement6">
			<tri3 id="1">1,3,2</tri3>
			<quad4 id="2">3,5,4,2</quad4>
			<quad4 id="3">5,7,6,4</quad4>
			<quad4 id="4">7,9,8,6</quad4>
			<quad4 id="5">9,11,10,8</quad4>
			<quad4 id="6">11,13,12,10</quad4>
			<quad4 id="7">13,15,14,12</quad4>
			<quad4 id="8">15,17,16,14</quad4>
			<quad4 id="9">17,19,18,16</quad4>
			<quad4 id="10">19,21,20,18</quad4>
			<quad4 id="11">21,23,22,20</quad4>
			<quad4 id="12">23,1027,1022,22</quad4>
			<tri3 id="13">999,1000,1001</tri3>
			<quad4 id="14">1000,1002,1003,1001</quad4>
			<quad4 id="15">1002,1004,1005,1003</quad4>
			<quad4 id="16">1004,1006,1007,1005</quad4>
			<quad4 id="17">1006,1008,1009,1007</quad4>
			<quad4 id="18">1008,1010,1011,1009</quad4>
			<quad4 id="19">1010,1012,1013,1011</quad4>
			<quad4 id="20">1012,1014,1015,1013</quad4>
			<quad4 id="21">1014,1016,1017,1015</quad4>
			<quad4 id="22">1016,1018,1019,1017</quad4>
			<quad4 id="23">1018,1020,1021,1019</quad4>
			<quad4 id="24">1020,1344,1349,1021</quad4>
			<quad4 id="25">1027,1028,1023,1022</quad4>
			<quad4 id="26">1028,1029,1024,1023</quad4>
			<quad4 id="27">1029,1030,1025,1024</quad4>
			<quad4 id="28">1030,1031,1026,1025</quad4>
			<quad4 id="29">1344,1345,1350,1349</quad4>
			<quad4 id="30">1345,1346,1351,1350</quad4>
			<quad4 id="31">1346,1347,1352,1351</quad4>
			<quad4 id="32">1347,1348,1353,1352</quad4>
		</Surface>
		<Surface name="FixedFluidVelocity3">
			<quad4 id="1">1,2,25,24</quad4>
			<quad4 id="2">24,25,50,49</quad4>
			<quad4 id="3">49,50,75,74</quad4>
			<quad4 id="4">74,75,100,99</quad4>
			<quad4 id="5">99,100,125,124</quad4>
			<quad4 id="6">124,125,150,149</quad4>
			<quad4 id="7">149,150,175,174</quad4>
			<quad4 id="8">174,175,200,199</quad4>
			<quad4 id="9">199,200,225,224</quad4>
			<quad4 id="10">224,225,250,249</quad4>
			<quad4 id="11">249,250,275,274</quad4>
			<quad4 id="12">274,275,300,299</quad4>
			<quad4 id="13">299,300,325,324</quad4>
			<quad4 id="14">324,325,350,349</quad4>
			<quad4 id="15">349,350,375,374</quad4>
			<quad4 id="16">374,375,400,399</quad4>
			<quad4 id="17">399,400,425,424</quad4>
			<quad4 id="18">424,425,450,449</quad4>
			<quad4 id="19">449,450,475,474</quad4>
			<quad4 id="20">474,475,500,499</quad4>
<!-- ... 460 like lines cut -->
		</Surface>
		<Surface name="FixedFluidVelocity4">
			<quad4 id="1">1022,1027,48,47</quad4>
			<quad4 id="2">47,48,73,72</quad4>
			<quad4 id="3">72,73,98,97</quad4>
			<quad4 id="4">97,98,123,122</quad4>
			<quad4 id="5">122,123,148,147</quad4>
			<quad4 id="6">147,148,173,172</quad4>
			<quad4 id="7">172,173,198,197</quad4>
			<quad4 id="8">197,198,223,222</quad4>
			<quad4 id="9">222,223,248,247</quad4>
			<quad4 id="10">247,248,273,272</quad4>
			<quad4 id="11">272,273,298,297</quad4>
			<quad4 id="12">297,298,323,322</quad4>
			<quad4 id="13">322,323,348,347</quad4>
			<quad4 id="14">347,348,373,372</quad4>
			<quad4 id="15">372,373,398,397</quad4>
			<quad4 id="16">397,398,423,422</quad4>
			<quad4 id="17">422,423,448,447</quad4>
			<quad4 id="18">447,448,473,472</quad4>
			<quad4 id="19">472,473,498,497</quad4>
			<quad4 id="20">497,498,523,522</quad4>
<!-- ... 20 like lines cut -->
		</Surface>
		<Surface name="FluidFlowResistance01">
			<tri3 id="1">1,3,2</tri3>
			<quad4 id="2">3,5,4,2</quad4>
			<quad4 id="3">5,7,6,4</quad4>
			<quad4 id="4">7,9,8,6</quad4>
			<quad4 id="5">9,11,10,8</quad4>
			<quad4 id="6">11,13,12,10</quad4>
			<quad4 id="7">13,15,14,12</quad4>
			<quad4 id="8">15,17,16,14</quad4>
			<quad4 id="9">17,19,18,16</quad4>
			<quad4 id="10">19,21,20,18</quad4>
			<quad4 id="11">21,23,22,20</quad4>
			<quad4 id="12">23,1027,1022,22</quad4>
		</Surface>
		<Surface name="FluidFlowResistance02">
			<tri3 id="1">999,1000,1001</tri3>
			<quad4 id="2">1000,1002,1003,1001</quad4>
			<quad4 id="3">1002,1004,1005,1003</quad4>
			<quad4 id="4">1004,1006,1007,1005</quad4>
			<quad4 id="5">1006,1008,1009,1007</quad4>
			<quad4 id="6">1008,1010,1011,1009</quad4>
			<quad4 id="7">1010,1012,1013,1011</quad4>
			<quad4 id="8">1012,1014,1015,1013</quad4>
			<quad4 id="9">1014,1016,1017,1015</quad4>
			<quad4 id="10">1016,1018,1019,1017</quad4>
			<quad4 id="11">1018,1020,1021,1019</quad4>
			<quad4 id="12">1020,1344,1349,1021</quad4>
		</Surface>
		<Surface name="FluidBackflowStabilization01">
			<tri3 id="1">1,3,2</tri3>
			<quad4 id="2">3,5,4,2</quad4>
			<quad4 id="3">5,7,6,4</quad4>
			<quad4 id="4">7,9,8,6</quad4>
			<quad4 id="5">9,11,10,8</quad4>
			<quad4 id="6">11,13,12,10</quad4>
			<quad4 id="7">13,15,14,12</quad4>
			<quad4 id="8">15,17,16,14</quad4>
			<quad4 id="9">17,19,18,16</quad4>
			<quad4 id="10">19,21,20,18</quad4>
			<quad4 id="11">21,23,22,20</quad4>
			<quad4 id="12">23,1027,1022,22</quad4>
		</Surface>
		<Surface name="FluidTangentialStabilization01">
			<tri3 id="1">1,3,2</tri3>
			<quad4 id="2">3,5,4,2</quad4>
			<quad4 id="3">5,7,6,4</quad4>
			<quad4 id="4">7,9,8,6</quad4>
			<quad4 id="5">9,11,10,8</quad4>
			<quad4 id="6">11,13,12,10</quad4>
			<quad4 id="7">13,15,14,12</quad4>
			<quad4 id="8">15,17,16,14</quad4>
			<quad4 id="9">17,19,18,16</quad4>
			<quad4 id="10">19,21,20,18</quad4>
			<quad4 id="11">21,23,22,20</quad4>
			<quad4 id="12">23,1027,1022,22</quad4>
		</Surface>
		<Surface name="FluidBackflowStabilization02">
			<tri3 id="1">999,1000,1001</tri3>
			<quad4 id="2">1000,1002,1003,1001</quad4>
			<quad4 id="3">1002,1004,1005,1003</quad4>
			<quad4 id="4">1004,1006,1007,1005</quad4>
			<quad4 id="5">1006,1008,1009,1007</quad4>
			<quad4 id="6">1008,1010,1011,1009</quad4>
			<quad4 id="7">1010,1012,1013,1011</quad4>
			<quad4 id="8">1012,1014,1015,1013</quad4>
			<quad4 id="9">1014,1016,1017,1015</quad4>
			<quad4 id="10">1016,1018,1019,1017</quad4>
			<quad4 id="11">1018,1020,1021,1019</quad4>
			<quad4 id="12">1020,1344,1349,1021</quad4>
		</Surface>
		<Surface name="FluidTangentialStabilization02">
			<tri3 id="1">999,1000,1001</tri3>
			<quad4 id="2">1000,1002,1003,1001</quad4>
			<quad4 id="3">1002,1004,1005,1003</quad4>
			<quad4 id="4">1004,1006,1007,1005</quad4>
			<quad4 id="5">1006,1008,1009,1007</quad4>
			<quad4 id="6">1008,1010,1011,1009</quad4>
			<quad4 id="7">1010,1012,1013,1011</quad4>
			<quad4 id="8">1012,1014,1015,1013</quad4>
			<quad4 id="9">1014,1016,1017,1015</quad4>
			<quad4 id="10">1016,1018,1019,1017</quad4>
			<quad4 id="11">1018,1020,1021,1019</quad4>
			<quad4 id="12">1020,1344,1349,1021</quad4>
		</Surface>
		<Surface name="FSInterfaceTraction01">
			<quad4 id="1">1027,1022,47,48</quad4>
			<quad4 id="2">48,47,72,73</quad4>
			<quad4 id="3">73,72,97,98</quad4>
			<quad4 id="4">98,97,122,123</quad4>
			<quad4 id="5">123,122,147,148</quad4>
			<quad4 id="6">148,147,172,173</quad4>
			<quad4 id="7">173,172,197,198</quad4>
			<quad4 id="8">198,197,222,223</quad4>
			<quad4 id="9">223,222,247,248</quad4>
			<quad4 id="10">248,247,272,273</quad4>
			<quad4 id="11">273,272,297,298</quad4>
			<quad4 id="12">298,297,322,323</quad4>
			<quad4 id="13">323,322,347,348</quad4>
			<quad4 id="14">348,347,372,373</quad4>
			<quad4 id="15">373,372,397,398</quad4>
			<quad4 id="16">398,397,422,423</quad4>
			<quad4 id="17">423,422,447,448</quad4>
			<quad4 id="18">448,447,472,473</quad4>
			<quad4 id="19">473,472,497,498</quad4>
			<quad4 id="20">498,497,522,523</quad4>
<!-- ... 20 like lines cut -->
		</Surface>
		<Surface name="NormFlowInlet">
			<tri3 id="1">1,3,2</tri3>
			<quad4 id="2">3,5,4,2</quad4>
			<quad4 id="3">5,7,6,4</quad4>
			<quad4 id="4">7,9,8,6</quad4>
			<quad4 id="5">9,11,10,8</quad4>
			<quad4 id="6">11,13,12,10</quad4>
			<quad4 id="7">13,15,14,12</quad4>
			<quad4 id="8">15,17,16,14</quad4>
			<quad4 id="9">17,19,18,16</quad4>
			<quad4 id="10">19,21,20,18</quad4>
			<quad4 id="11">21,23,22,20</quad4>
			<quad4 id="12">23,1027,1022,22</quad4>
		</Surface>
		<Surface name="NormFlowOutlet">
			<tri3 id="1">999,1000,1001</tri3>
			<quad4 id="2">1000,1002,1003,1001</quad4>
			<quad4 id="3">1002,1004,1005,1003</quad4>
			<quad4 id="4">1004,1006,1007,1005</quad4>
			<quad4 id="5">1006,1008,1009,1007</quad4>
			<quad4 id="6">1008,1010,1011,1009</quad4>
			<quad4 id="7">1010,1012,1013,1011</quad4>
			<quad4 id="8">1012,1014,1015,1013</quad4>
			<quad4 id="9">1014,1016,1017,1015</quad4>
			<quad4 id="10">1016,1018,1019,1017</quad4>
			<quad4 id="11">1018,1020,1021,1019</quad4>
			<quad4 id="12">1020,1344,1349,1021</quad4>
		</Surface>
		<Surface name="SymmetryPlane1">
			<quad4 id="1">1,24,26,3</quad4>
			<quad4 id="2">24,49,51,26</quad4>
			<quad4 id="3">49,74,76,51</quad4>
			<quad4 id="4">74,99,101,76</quad4>
			<quad4 id="5">99,124,126,101</quad4>
			<quad4 id="6">124,149,151,126</quad4>
			<quad4 id="7">149,174,176,151</quad4>
			<quad4 id="8">174,199,201,176</quad4>
			<quad4 id="9">199,224,226,201</quad4>
			<quad4 id="10">224,249,251,226</quad4>
			<quad4 id="11">249,274,276,251</quad4>
			<quad4 id="12">274,299,301,276</quad4>
			<quad4 id="13">299,324,326,301</quad4>
			<quad4 id="14">324,349,351,326</quad4>
			<quad4 id="15">349,374,376,351</quad4>
			<quad4 id="16">374,399,401,376</quad4>
			<quad4 id="17">399,424,426,401</quad4>
			<quad4 id="18">424,449,451,426</quad4>
			<quad4 id="19">449,474,476,451</quad4>
			<quad4 id="20">474,499,501,476</quad4>
<!-- ... 620 like lines cut -->
		</Surface>
		<Surface name="FrictionlessFluidWall4">
			<quad4 id="1">1,24,26,3</quad4>
			<quad4 id="2">24,49,51,26</quad4>
			<quad4 id="3">49,74,76,51</quad4>
			<quad4 id="4">74,99,101,76</quad4>
			<quad4 id="5">99,124,126,101</quad4>
			<quad4 id="6">124,149,151,126</quad4>
			<quad4 id="7">149,174,176,151</quad4>
			<quad4 id="8">174,199,201,176</quad4>
			<quad4 id="9">199,224,226,201</quad4>
			<quad4 id="10">224,249,251,226</quad4>
			<quad4 id="11">249,274,276,251</quad4>
			<quad4 id="12">274,299,301,276</quad4>
			<quad4 id="13">299,324,326,301</quad4>
			<quad4 id="14">324,349,351,326</quad4>
			<quad4 id="15">349,374,376,351</quad4>
			<quad4 id="16">374,399,401,376</quad4>
			<quad4 id="17">399,424,426,401</quad4>
			<quad4 id="18">424,449,451,426</quad4>
			<quad4 id="19">449,474,476,451</quad4>
			<quad4 id="20">474,499,501,476</quad4>
<!-- ... 460 like lines cut -->
		</Surface>
		<Surface name="Inlet">
			<quad4 id="1">24,25,50,49</quad4>
			<quad4 id="2">36,34,59,61</quad4>
			<quad4 id="3">37,39,64,62</quad4>
			<quad4 id="4">42,40,65,67</quad4>
			<quad4 id="5">43,45,70,68</quad4>
			<quad4 id="6">48,46,71,73</quad4>
			<quad4 id="7">52,54,79,77</quad4>
			<quad4 id="8">57,55,80,82</quad4>
			<quad4 id="9">58,60,85,83</quad4>
			<quad4 id="10">63,61,86,88</quad4>
			<quad4 id="11">64,66,91,89</quad4>
			<quad4 id="12">68,70,95,93</quad4>
		</Surface>
		<Surface name="Outlet">
			<quad4 id="1">31,33,58,56</quad4>
			<quad4 id="2">1063,1062,1070,1071</quad4>
			<quad4 id="3">1064,1065,1073,1072</quad4>
			<quad4 id="4">1070,1069,1077,1078</quad4>
			<quad4 id="5">1071,1070,1078,1079</quad4>
			<quad4 id="6">1072,1073,1081,1080</quad4>
			<quad4 id="7">1078,1077,1085,1086</quad4>
			<quad4 id="8">1079,1078,1086,1087</quad4>
			<quad4 id="9">1080,1081,1089,1088</quad4>
			<quad4 id="10">1086,1085,1093,1094</quad4>
			<quad4 id="11">1087,1086,1094,1095</quad4>
			<quad4 id="12">1093,1092,1100,1101</quad4>
		</Surface>
	</Mesh>
	<MeshDomains>
		<SolidDomain name="Part1" mat="Fluid"/>
		<SolidDomain name="Part1__2" mat="Fluid"/>
		<SolidDomain name="Part4" mat="Solid"/>
	</MeshDomains>
	<Boundary>
		<bc name="FixedDisplacement4" node_set="FixedDisplacement4" type="zero displacement">
			<x_dof>1</x_dof>
			<y_dof>1</y_dof>
			<z_dof>0</z_dof>
		</bc>
		<bc name="FixedDisplacement5" node_set="@surface:FixedDisplacement5" type="zero displacement">
			<x_dof>0</x_dof>
			<y_dof>1</y_dof>
			<z_dof>0</z_dof>
		</bc>
		<bc name="FixedDisplacement6" node_set="@surface:FixedDisplacement6" type="zero displacement">
			<x_dof>0</x_dof>
			<y_dof>0</y_dof>
			<z_dof>1</z_dof>
		</bc>
		<bc name="FixedFluidVelocity2" node_set="FixedFluidVelocity2" type="zero fluid velocity">
			<wx_dof>1</wx_dof>
			<wy_dof>1</wy_dof>
			<wz_dof>0</wz_dof>
		</bc>
		<bc name="FixedFluidVelocity3" node_set="@surface:FixedFluidVelocity3" type="zero fluid velocity">
			<wx_dof>0</wx_dof>
			<wy_dof>1</wy_dof>
			<wz_dof>0</wz_dof>
		</bc>
		<bc name="FixedFluidVelocity4" node_set="@surface:FixedFluidVelocity4" type="zero fluid velocity">
			<wx_dof>1</wx_dof>
			<wy_dof>1</wy_dof>
			<wz_dof>1</wz_dof>
		</bc>
		<bc name="FluidFlowResistance01" surface="FluidFlowResistance01" type="fluid resistance">
			<R lc="1">0</R>
			<pressure_offset lc="2">5000</pressure_offset>
		</bc>
		<bc name="FluidFlowResistance02" surface="FluidFlowResistance02" type="fluid resistance">
			<R lc="3">0</R>
			<pressure_offset lc="4">4000</pressure_offset>
		</bc>
	</Boundary>
	<Loads>
		<surface_load name="FluidBackflowStabilization01" surface="FluidBackflowStabilization01" type="fluid backflow stabilization">
			<beta lc="5">1</beta>
		</surface_load>
		<surface_load name="FluidTangentialStabilization01" surface="FluidTangentialStabilization01" type="fluid tangential stabilization">
			<beta lc="6">1</beta>
		</surface_load>
		<surface_load name="FluidBackflowStabilization02" surface="FluidBackflowStabilization02" type="fluid backflow stabilization">
			<beta lc="7">1</beta>
		</surface_load>
		<surface_load name="FluidTangentialStabilization02" surface="FluidTangentialStabilization02" type="fluid tangential stabilization">
			<beta lc="8">1</beta>
		</surface_load>
		<surface_load name="FSInterfaceTraction01" surface="FSInterfaceTraction01" type="fluid-FSI traction">
			<shell_bottom>0</shell_bottom>
		</surface_load>
	</Loads>
	<Constraints>
		<constraint name="NormFlowInlet" surface="NormFlowInlet" type="normal fluid flow">
			<laugon>LAGMULT</laugon>
			<tol>0.2</tol>
			<penalty>1000</penalty>
			<rhs>0</rhs>
			<minaug>0</minaug>
			<maxaug>0</maxaug>
		</constraint>
		<constraint name="NormFlowOutlet" surface="NormFlowOutlet" type="normal fluid flow">
			<laugon>PENALTY</laugon>
			<tol>0.2</tol>
			<penalty>1000</penalty>
			<rhs>0</rhs>
			<minaug>0</minaug>
			<maxaug>0</maxaug>
		</constraint>
		<constraint name="SymmetryPlane1" surface="SymmetryPlane1" type="symmetry plane">
			<laugon>LAGMULT</laugon>
			<tol>0.2</tol>
			<penalty>1000</penalty>
			<rhs>0</rhs>
			<minaug>0</minaug>
			<maxaug>0</maxaug>
		</constraint>
		<constraint name="FrictionlessFluidWall4" surface="FrictionlessFluidWall4" type="frictionless fluid wall">
			<laugon>PENALTY</laugon>
			<tol>0.2</tol>
			<penalty>1</penalty>
			<rhs>0</rhs>
			<minaug>0</minaug>
			<maxaug>10</maxaug>
		</constraint>
	</Constraints>
	<LoadData>
		<load_controller id="1" name="LC1" type="loadcurve">
			<interpolate>STEP</interpolate>
			<extend>CONSTANT</extend>
			<points>
				<pt>0,0</pt>
				<pt>1,1</pt>
			</points>
		</load_controller>
		<load_controller id="2" name="LC2" type="loadcurve">
			<interpolate>LINEAR</interpolate>
			<extend>CONSTANT</extend>
			<points>
				<pt>0,0</pt>
				<pt>0.2,1</pt>
			</points>
		</load_controller>
		<load_controller id="3" name="LC3" type="loadcurve">
			<interpolate>STEP</interpolate>
			<extend>CONSTANT</extend>
			<points>
				<pt>0,0</pt>
				<pt>1,1</pt>
			</points>
		</load_controller>
		<load_controller id="4" name="LC4" type="loadcurve">
			<interpolate>LINEAR</interpolate>
			<extend>CONSTANT</extend>
			<points>
				<pt>0,0</pt>
				<pt>0.2,1</pt>
			</points>
		</load_controller>
		<load_controller id="5" name="LC5" type="loadcurve">
			<interpolate>STEP</interpolate>
			<extend>CONSTANT</extend>
			<points>
				<pt>0,0</pt>
				<pt>1,1</pt>
			</points>
		</load_controller>
		<load_controller id="6" name="LC6" type="loadcurve">
			<interpolate>STEP</interpolate>
			<extend>CONSTANT</extend>
			<points>
				<pt>0,0</pt>
				<pt>1,1</pt>
			</points>
		</load_controller>
		<load_controller id="7" name="LC7" type="loadcurve">
			<interpolate>STEP</interpolate>
			<extend>CONSTANT</extend>
			<points>
				<pt>0,0</pt>
				<pt>1,1</pt>
			</points>
		</load_controller>
		<load_controller id="8" name="LC8" type="loadcurve">
			<interpolate>STEP</interpolate>
			<extend>CONSTANT</extend>
			<points>
				<pt>0,0</pt>
				<pt>1,1</pt>
			</points>
		</load_controller>
	</LoadData>
	<Output>
		<plotfile type="febio">
			<var type="acceleration"/>
			<var type="displacement"/>
			<var type="relative volume"/>
			<var type="stress"/>
			<var type="velocity"/>
			<var type="fluid pressure"/>
			<var type="fluid flux"/>
			<var type="fluid acceleration"/>
			<var type="fluid density"/>
			<var type="fluid dilatation"/>
			<var type="fluid mass flow rate" surface="Inlet"/>
			<var type="fluid mass flow rate" surface="Outlet"/>
			<var type="fluid rate of deformation"/>
			<var type="fluid stress"/>
			<var type="fluid velocity"/>
			<var type="fluid volume ratio"/>
			<var type="fluid vorticity"/>
			<var type="nodal fluid velocity"/>
			<var type="nodal fluid flux"/>
			<var type="relative fluid velocity"/>
		</plotfile>
	</Output>
</febio_spec>
