<?xml version="1.0" encoding="ISO-8859-1"?>
<febio_spec version="4.0">
	<Module type="fluid-FSI"/>
	<Control>
		<analysis>DYNAMIC</analysis>
		<time_steps>30</time_steps>
		<step_size>0.02</step_size>
		<!-- <time_steps>200</time_steps> -->
		<!-- <step_size>0.01</step_size> -->
		<plot_zero_state>0</plot_zero_state>
		<plot_range>0,-1</plot_range>
		<plot_level>PLOT_MAJOR_ITRS</plot_level>
		<output_level>OUTPUT_MAJOR_ITRS</output_level>
		<plot_stride>1</plot_stride>
		<adaptor_re_solve>1</adaptor_re_solve>
		<time_stepper type="default">
			<max_retries>5</max_retries>
			<opt_iter>50</opt_iter>
			<dtmin>0.001</dtmin>
			<dtmax>0.01</dtmax>
			<!-- <dtmax>0.02</dtmax> -->
			<aggressiveness>0</aggressiveness>
			<cutback>0.5</cutback>
			<dtforce>0</dtforce>
		</time_stepper>
		<solver type="fluid-FSI">
			<symmetric_stiffness>non-symmetric</symmetric_stiffness>
			<equation_scheme>staggered</equation_scheme>
			<equation_order>default</equation_order>
			<optimize_bw>0</optimize_bw>
			<lstol>0.9</lstol>
			<lsmin>0.01</lsmin>
			<lsiter>5</lsiter>
			<max_refs>2</max_refs>
			<check_zero_diagonal>0</check_zero_diagonal>
			<zero_diagonal_tol>0</zero_diagonal_tol>
			<force_partition>0</force_partition>
			<reform_each_time_step>0</reform_each_time_step>
			<reform_augment>0</reform_augment>
			<diverge_reform>0</diverge_reform>
			<min_residual>1e-20</min_residual>
			<max_residual>1e+20</max_residual>
			<dtol>0.001</dtol>
			<vtol>0.001</vtol>
			<ftol>0.001</ftol>
			<etol>0.01</etol>
			<rtol>0</rtol>
			<rhoi>0</rhoi>
			<predictor>0</predictor>
			<min_volume_ratio>0</min_volume_ratio>
			<order>2</order>
			<qn_method type="Broyden">
				<max_ups>50</max_ups>
				<max_buffer_size>0</max_buffer_size>
				<cycle_buffer>1</cycle_buffer>
				<cmax>100000</cmax>
			</qn_method>
		</solver>
	</Control>
	<Globals>
		<Constants>
			<T>0</T>
			<R>0</R>
			<Fc>0</Fc>
		</Constants>
	</Globals>
	<Material>
		<material id="1" name="Fluid domain" type="fluid-FSI">
			<solid type="neo-Hookean">
				<density>0</density>
				<E>0.01</E>
				<v>0</v>
			</solid>
			<fluid>
				<density>1</density>
				<k>2.2e+10</k>
				<viscous type="Newtonian fluid">
					<kappa>0</kappa>
					<mu>0.035</mu>
				</viscous>
			</fluid>
		</material>
		<material id="2" name="Solid domain" type="neo-Hookean">
			<density>1</density>
			<E>2000000</E>
			<v>0.3</v>
		</material>
	</Material>
	<Mesh>
		<Nodes name="Object1">
			<node id="1">-5,-0.5,0</node>
			<node id="2">5,-0.5,0</node>
			<node id="3">5,0.5,0</node>
			<node id="4">-5,0.5,0</node>
			<node id="5">-5,-0.5,0.2</node>
			<node id="6">5,-0.5,0.2</node>
			<node id="7">5,0.5,0.2</node>
			<node id="8">-5,0.5,0.2</node>
			<node id="9">-4.8,-0.5,0</node>
			<node id="10">-4.6,-0.5,0</node>
			<node id="11">-4.4,-0.5,0</node>
			<node id="12">-4.2,-0.5,0</node>
			<node id="13">-4,-0.5,0</node>
			<node id="14">-3.8,-0.5,0</node>
			<node id="15">-3.6,-0.5,0</node>
			<node id="16">-3.4,-0.5,0</node>
			<node id="17">-3.2,-0.5,0</node>
			<node id="18">-3,-0.5,0</node>
			<node id="19">-2.8,-0.5,0</node>
			<node id="20">-2.6,-0.5,0</node>
<!-- ... 3166 like lines cut -->
		</Nodes>
		<Elements type="hex8" name="Part1">
			<elem id="1">633,634,585,584,682,683,732,731</elem>
			<elem id="2">634,635,586,585,683,684,733,732</elem>
			<elem id="3">635,636,587,586,684,685,734,733</elem>
			<elem id="4">636,637,588,587,685,686,735,734</elem>
			<elem id="5">637,638,589,588,686,687,736,735</elem>
			<elem id="6">638,639,590,589,687,688,737,736</elem>
			<elem id="7">639,640,591,590,688,689,738,737</elem>
			<elem id="8">640,641,592,591,689,690,739,738</elem>
			<elem id="9">641,642,593,592,690,691,740,739</elem>
			<elem id="10">642,643,594,593,691,692,741,740</elem>
			<elem id="11">643,644,595,594,692,693,742,741</elem>
			<elem id="12">644,645,596,595,693,694,743,742</elem>
			<elem id="13">645,646,597,596,694,695,744,743</elem>
			<elem id="14">646,647,598,597,695,696,745,744</elem>
			<elem id="15">647,648,599,598,696,697,746,745</elem>
			<elem id="16">648,649,600,599,697,698,747,746</elem>
			<elem id="17">649,650,601,600,698,699,748,747</elem>
			<elem id="18">650,651,602,601,699,700,749,748</elem>
			<elem id="19">651,652,603,602,700,701,750,749</elem>
			<elem id="20">652,653,604,603,701,702,751,750</elem>
<!-- ... 1024 like lines cut -->
		</Elements>
		<Elements type="hex8" name="Part4">
			<elem id="1045">172,173,174,175,2294,2295,2296,2297</elem>
			<elem id="1046">171,172,175,176,2293,2294,2297,2298</elem>
			<elem id="1047">170,171,176,177,2292,2293,2298,2299</elem>
			<elem id="1048">169,170,177,178,2291,2292,2299,2300</elem>
			<elem id="1049">168,169,178,179,2290,2291,2300,2301</elem>
			<elem id="1050">167,168,179,180,2289,2290,2301,2302</elem>
			<elem id="1051">166,167,180,181,2288,2289,2302,2303</elem>
			<elem id="1052">165,166,181,182,2287,2288,2303,2304</elem>
			<elem id="1053">164,165,182,183,2286,2287,2304,2305</elem>
			<elem id="1054">163,164,183,184,2285,2286,2305,2306</elem>
			<elem id="1055">162,163,184,185,2284,2285,2306,2307</elem>
			<elem id="1056">161,162,185,186,2283,2284,2307,2308</elem>
			<elem id="1057">160,161,186,187,2282,2283,2308,2309</elem>
			<elem id="1058">159,160,187,188,2281,2282,2309,2310</elem>
			<elem id="1059">158,159,188,189,2280,2281,2310,2311</elem>
			<elem id="1060">157,158,189,190,2279,2280,2311,2312</elem>
			<elem id="1061">156,157,190,191,2278,2279,2312,2313</elem>
			<elem id="1062">155,156,191,192,2277,2278,2313,2314</elem>
			<elem id="1063">154,155,192,193,2276,2277,2314,2315</elem>
			<elem id="1064">153,154,193,194,2275,2276,2315,2316</elem>
<!-- ... 212 like lines cut -->
		</Elements>
		<Elements type="hex8" name="Part5">
			<elem id="1277">9,10,105,106,2719,2720,2815,2816</elem>
			<elem id="1278">10,11,104,105,2720,2721,2814,2815</elem>
			<elem id="1279">11,12,103,104,2721,2722,2813,2814</elem>
			<elem id="1280">12,13,102,103,2722,2723,2812,2813</elem>
			<elem id="1281">13,14,101,102,2723,2724,2811,2812</elem>
			<elem id="1282">14,15,100,101,2724,2725,2810,2811</elem>
			<elem id="1283">15,16,99,100,2725,2726,2809,2810</elem>
			<elem id="1284">16,17,98,99,2726,2727,2808,2809</elem>
			<elem id="1285">17,18,97,98,2727,2728,2807,2808</elem>
			<elem id="1286">18,19,96,97,2728,2729,2806,2807</elem>
			<elem id="1287">19,20,95,96,2729,2730,2805,2806</elem>
			<elem id="1288">20,21,94,95,2730,2731,2804,2805</elem>
			<elem id="1289">21,22,93,94,2731,2732,2803,2804</elem>
			<elem id="1290">22,23,92,93,2732,2733,2802,2803</elem>
			<elem id="1291">23,24,91,92,2733,2734,2801,2802</elem>
			<elem id="1292">24,25,90,91,2734,2735,2800,2801</elem>
			<elem id="1293">25,26,89,90,2735,2736,2799,2800</elem>
			<elem id="1294">26,27,88,89,2736,2737,2798,2799</elem>
			<elem id="1295">27,28,87,88,2737,2738,2797,2798</elem>
			<elem id="1296">28,29,86,87,2738,2739,2796,2797</elem>
<!-- ... 212 like lines cut -->
		</Elements>
		<Surface name="FixedDisplacement1">
			<quad4 id="1">584,585,634,633</quad4>
			<quad4 id="2">585,586,635,634</quad4>
			<quad4 id="3">586,587,636,635</quad4>
			<quad4 id="4">587,588,637,636</quad4>
			<quad4 id="5">588,589,638,637</quad4>
			<quad4 id="6">589,590,639,638</quad4>
			<quad4 id="7">590,591,640,639</quad4>
			<quad4 id="8">591,592,641,640</quad4>
			<quad4 id="9">592,593,642,641</quad4>
			<quad4 id="10">593,594,643,642</quad4>
			<quad4 id="11">594,595,644,643</quad4>
			<quad4 id="12">595,596,645,644</quad4>
			<quad4 id="13">596,597,646,645</quad4>
			<quad4 id="14">597,598,647,646</quad4>
			<quad4 id="15">598,599,648,647</quad4>
			<quad4 id="16">599,600,649,648</quad4>
			<quad4 id="17">600,601,650,649</quad4>
			<quad4 id="18">601,602,651,650</quad4>
			<quad4 id="19">602,603,652,651</quad4>
			<quad4 id="20">603,604,653,652</quad4>
<!-- ... 2996 like lines cut -->
		</Surface>
		<Surface name="FixedDisplacement2">
			<quad4 id="1">230,231,232,233</quad4>
			<quad4 id="2">229,230,233,234</quad4>
			<quad4 id="3">228,229,234,235</quad4>
			<quad4 id="4">227,228,235,236</quad4>
			<quad4 id="5">226,227,236,237</quad4>
			<quad4 id="6">225,226,237,238</quad4>
			<quad4 id="7">224,225,238,239</quad4>
			<quad4 id="8">223,224,239,240</quad4>
			<quad4 id="9">231,1127,1135,232</quad4>
			<quad4 id="10">1127,1128,1136,1135</quad4>
			<quad4 id="11">1128,1129,1137,1136</quad4>
			<quad4 id="12">1129,1130,1138,1137</quad4>
			<quad4 id="13">1130,1,5,1138</quad4>
			<quad4 id="14">4,1535,1543,8</quad4>
			<quad4 id="15">1535,1536,1544,1543</quad4>
			<quad4 id="16">1536,1537,1545,1544</quad4>
			<quad4 id="17">1537,1538,1546,1545</quad4>
			<quad4 id="18">1538,223,240,1546</quad4>
			<quad4 id="19">107,108,123,124</quad4>
			<quad4 id="20">108,109,122,123</quad4>
<!-- ... 32 like lines cut -->
		</Surface>
		<Surface name="FixedDisplacement3">
			<quad4 id="1">4,8,2246,2244</quad4>
			<quad4 id="2">2244,2246,2364,2362</quad4>
			<quad4 id="3">2362,2364,2482,2480</quad4>
			<quad4 id="4">2480,2482,2600,2598</quad4>
			<quad4 id="5">7,3,2243,2245</quad4>
			<quad4 id="6">2245,2243,2361,2363</quad4>
			<quad4 id="7">2363,2361,2479,2481</quad4>
			<quad4 id="8">2481,2479,2597,2599</quad4>
			<quad4 id="9">5,1,2715,2717</quad4>
			<quad4 id="10">2717,2715,2833,2835</quad4>
			<quad4 id="11">2835,2833,2951,2953</quad4>
			<quad4 id="12">2953,2951,3069,3071</quad4>
			<quad4 id="13">2,6,2718,2716</quad4>
			<quad4 id="14">2716,2718,2836,2834</quad4>
			<quad4 id="15">2834,2836,2954,2952</quad4>
			<quad4 id="16">2952,2954,3072,3070</quad4>
		</Surface>
		<Surface name="FixedFluidVelocity1">
			<quad4 id="1">584,585,634,633</quad4>
			<quad4 id="2">585,586,635,634</quad4>
			<quad4 id="3">586,587,636,635</quad4>
			<quad4 id="4">587,588,637,636</quad4>
			<quad4 id="5">588,589,638,637</quad4>
			<quad4 id="6">589,590,639,638</quad4>
			<quad4 id="7">590,591,640,639</quad4>
			<quad4 id="8">591,592,641,640</quad4>
			<quad4 id="9">592,593,642,641</quad4>
			<quad4 id="10">593,594,643,642</quad4>
			<quad4 id="11">594,595,644,643</quad4>
			<quad4 id="12">595,596,645,644</quad4>
			<quad4 id="13">596,597,646,645</quad4>
			<quad4 id="14">597,598,647,646</quad4>
			<quad4 id="15">598,599,648,647</quad4>
			<quad4 id="16">599,600,649,648</quad4>
			<quad4 id="17">600,601,650,649</quad4>
			<quad4 id="18">601,602,651,650</quad4>
			<quad4 id="19">602,603,652,651</quad4>
			<quad4 id="20">603,604,653,652</quad4>
<!-- ... 2068 like lines cut -->
		</Surface>
		<Surface name="FixedFluidVelocity2">
			<quad4 id="1">9,10,105,106</quad4>
			<quad4 id="2">10,11,104,105</quad4>
			<quad4 id="3">11,12,103,104</quad4>
			<quad4 id="4">12,13,102,103</quad4>
			<quad4 id="5">13,14,101,102</quad4>
			<quad4 id="6">14,15,100,101</quad4>
			<quad4 id="7">15,16,99,100</quad4>
			<quad4 id="8">16,17,98,99</quad4>
			<quad4 id="9">17,18,97,98</quad4>
			<quad4 id="10">18,19,96,97</quad4>
			<quad4 id="11">19,20,95,96</quad4>
			<quad4 id="12">20,21,94,95</quad4>
			<quad4 id="13">21,22,93,94</quad4>
			<quad4 id="14">22,23,92,93</quad4>
			<quad4 id="15">23,24,91,92</quad4>
			<quad4 id="16">24,25,90,91</quad4>
			<quad4 id="17">25,26,89,90</quad4>
			<quad4 id="18">26,27,88,89</quad4>
			<quad4 id="19">27,28,87,88</quad4>
			<quad4 id="20">28,29,86,87</quad4>
<!-- ... 96 like lines cut -->
		</Surface>
		<Surface name="FixedFluidDilatation1">
			<quad4 id="1">107,108,123,124</quad4>
			<quad4 id="2">108,109,122,123</quad4>
			<quad4 id="3">109,110,121,122</quad4>
			<quad4 id="4">110,111,120,121</quad4>
			<quad4 id="5">111,112,119,120</quad4>
			<quad4 id="6">112,113,118,119</quad4>
			<quad4 id="7">113,114,117,118</quad4>
			<quad4 id="8">114,115,116,117</quad4>
			<quad4 id="9">1526,107,124,1530</quad4>
			<quad4 id="10">1525,1526,1530,1529</quad4>
			<quad4 id="11">1524,1525,1529,1528</quad4>
			<quad4 id="12">1523,1524,1528,1527</quad4>
			<quad4 id="13">2,1523,1527,6</quad4>
			<quad4 id="14">1934,3,7,1938</quad4>
			<quad4 id="15">1933,1934,1938,1937</quad4>
			<quad4 id="16">1932,1933,1937,1936</quad4>
			<quad4 id="17">1931,1932,1936,1935</quad4>
			<quad4 id="18">115,1931,1935,116</quad4>
		</Surface>
		<Surface name="FluidPressure1">
			<quad4 id="1">230,231,232,233</quad4>
			<quad4 id="2">229,230,233,234</quad4>
			<quad4 id="3">228,229,234,235</quad4>
			<quad4 id="4">227,228,235,236</quad4>
			<quad4 id="5">226,227,236,237</quad4>
			<quad4 id="6">225,226,237,238</quad4>
			<quad4 id="7">224,225,238,239</quad4>
			<quad4 id="8">223,224,239,240</quad4>
			<quad4 id="9">231,1127,1135,232</quad4>
			<quad4 id="10">1127,1128,1136,1135</quad4>
			<quad4 id="11">1128,1129,1137,1136</quad4>
			<quad4 id="12">1129,1130,1138,1137</quad4>
			<quad4 id="13">1130,1,5,1138</quad4>
			<quad4 id="14">4,1535,1543,8</quad4>
			<quad4 id="15">1535,1536,1544,1543</quad4>
			<quad4 id="16">1536,1537,1545,1544</quad4>
			<quad4 id="17">1537,1538,1546,1545</quad4>
			<quad4 id="18">1538,223,240,1546</quad4>
		</Surface>
		<Surface name="FSIInterfaceTraction1">
			<quad4 id="1">9,10,105,106</quad4>
			<quad4 id="2">10,11,104,105</quad4>
			<quad4 id="3">11,12,103,104</quad4>
			<quad4 id="4">12,13,102,103</quad4>
			<quad4 id="5">13,14,101,102</quad4>
			<quad4 id="6">14,15,100,101</quad4>
			<quad4 id="7">15,16,99,100</quad4>
			<quad4 id="8">16,17,98,99</quad4>
			<quad4 id="9">17,18,97,98</quad4>
			<quad4 id="10">18,19,96,97</quad4>
			<quad4 id="11">19,20,95,96</quad4>
			<quad4 id="12">20,21,94,95</quad4>
			<quad4 id="13">21,22,93,94</quad4>
			<quad4 id="14">22,23,92,93</quad4>
			<quad4 id="15">23,24,91,92</quad4>
			<quad4 id="16">24,25,90,91</quad4>
			<quad4 id="17">25,26,89,90</quad4>
			<quad4 id="18">26,27,88,89</quad4>
			<quad4 id="19">27,28,87,88</quad4>
			<quad4 id="20">28,29,86,87</quad4>
<!-- ... 96 like lines cut -->
		</Surface>
		<Surface name="FluidTangentialStabilization1">
			<quad4 id="1">107,108,123,124</quad4>
			<quad4 id="2">108,109,122,123</quad4>
			<quad4 id="3">109,110,121,122</quad4>
			<quad4 id="4">110,111,120,121</quad4>
			<quad4 id="5">111,112,119,120</quad4>
			<quad4 id="6">112,113,118,119</quad4>
			<quad4 id="7">113,114,117,118</quad4>
			<quad4 id="8">114,115,116,117</quad4>
			<quad4 id="9">1526,107,124,1530</quad4>
			<quad4 id="10">1525,1526,1530,1529</quad4>
			<quad4 id="11">1524,1525,1529,1528</quad4>
			<quad4 id="12">1523,1524,1528,1527</quad4>
			<quad4 id="13">2,1523,1527,6</quad4>
			<quad4 id="14">1934,3,7,1938</quad4>
			<quad4 id="15">1933,1934,1938,1937</quad4>
			<quad4 id="16">1932,1933,1937,1936</quad4>
			<quad4 id="17">1931,1932,1936,1935</quad4>
			<quad4 id="18">115,1931,1935,116</quad4>
		</Surface>
		<Surface name="FluidTangentialStabilization2">
			<quad4 id="1">230,231,232,233</quad4>
			<quad4 id="2">229,230,233,234</quad4>
			<quad4 id="3">228,229,234,235</quad4>
			<quad4 id="4">227,228,235,236</quad4>
			<quad4 id="5">226,227,236,237</quad4>
			<quad4 id="6">225,226,237,238</quad4>
			<quad4 id="7">224,225,238,239</quad4>
			<quad4 id="8">223,224,239,240</quad4>
			<quad4 id="9">231,1127,1135,232</quad4>
			<quad4 id="10">1127,1128,1136,1135</quad4>
			<quad4 id="11">1128,1129,1137,1136</quad4>
			<quad4 id="12">1129,1130,1138,1137</quad4>
			<quad4 id="13">1130,1,5,1138</quad4>
			<quad4 id="14">4,1535,1543,8</quad4>
			<quad4 id="15">1535,1536,1544,1543</quad4>
			<quad4 id="16">1536,1537,1545,1544</quad4>
			<quad4 id="17">1537,1538,1546,1545</quad4>
			<quad4 id="18">1538,223,240,1546</quad4>
		</Surface>
		<Surface name="UniformFluidFlow1">
			<quad4 id="1">107,108,123,124</quad4>
			<quad4 id="2">108,109,122,123</quad4>
			<quad4 id="3">109,110,121,122</quad4>
			<quad4 id="4">110,111,120,121</quad4>
			<quad4 id="5">111,112,119,120</quad4>
			<quad4 id="6">112,113,118,119</quad4>
			<quad4 id="7">113,114,117,118</quad4>
			<quad4 id="8">114,115,116,117</quad4>
			<quad4 id="9">1526,107,124,1530</quad4>
			<quad4 id="10">1525,1526,1530,1529</quad4>
			<quad4 id="11">1524,1525,1529,1528</quad4>
			<quad4 id="12">1523,1524,1528,1527</quad4>
			<quad4 id="13">2,1523,1527,6</quad4>
			<quad4 id="14">1934,3,7,1938</quad4>
			<quad4 id="15">1933,1934,1938,1937</quad4>
			<quad4 id="16">1932,1933,1937,1936</quad4>
			<quad4 id="17">1931,1932,1936,1935</quad4>
			<quad4 id="18">115,1931,1935,116</quad4>
		</Surface>
		<Surface name="UniformFluidFlow2">
			<quad4 id="1">230,231,232,233</quad4>
			<quad4 id="2">229,230,233,234</quad4>
			<quad4 id="3">228,229,234,235</quad4>
			<quad4 id="4">227,228,235,236</quad4>
			<quad4 id="5">226,227,236,237</quad4>
			<quad4 id="6">225,226,237,238</quad4>
			<quad4 id="7">224,225,238,239</quad4>
			<quad4 id="8">223,224,239,240</quad4>
			<quad4 id="9">231,1127,1135,232</quad4>
			<quad4 id="10">1127,1128,1136,1135</quad4>
			<quad4 id="11">1128,1129,1137,1136</quad4>
			<quad4 id="12">1129,1130,1138,1137</quad4>
			<quad4 id="13">1130,1,5,1138</quad4>
			<quad4 id="14">4,1535,1543,8</quad4>
			<quad4 id="15">1535,1536,1544,1543</quad4>
			<quad4 id="16">1536,1537,1545,1544</quad4>
			<quad4 id="17">1537,1538,1546,1545</quad4>
			<quad4 id="18">1538,223,240,1546</quad4>
		</Surface>
	</Mesh>
	<MeshDomains>
		<SolidDomain name="Part1" mat="Fluid domain"/>
		<SolidDomain name="Part4" mat="Solid domain"/>
		<SolidDomain name="Part5" mat="Solid domain"/>
	</MeshDomains>
	<Boundary>
		<bc name="FixedDisplacement1" node_set="@surface:FixedDisplacement1" type="zero displacement">
			<x_dof>0</x_dof>
			<y_dof>0</y_dof>
			<z_dof>1</z_dof>
		</bc>
		<bc name="FixedDisplacement2" node_set="@surface:FixedDisplacement2" type="zero displacement">
			<x_dof>1</x_dof>
			<y_dof>0</y_dof>
			<z_dof>0</z_dof>
		</bc>
		<bc name="FixedDisplacement3" node_set="@surface:FixedDisplacement3" type="zero displacement">
			<x_dof>0</x_dof>
			<y_dof>1</y_dof>
			<z_dof>0</z_dof>
		</bc>
		<bc name="FixedFluidVelocity1" node_set="@surface:FixedFluidVelocity1" type="zero fluid velocity">
			<wx_dof>0</wx_dof>
			<wy_dof>0</wy_dof>
			<wz_dof>1</wz_dof>
		</bc>
		<bc name="FixedFluidVelocity2" node_set="@surface:FixedFluidVelocity2" type="zero fluid velocity">
			<wx_dof>1</wx_dof>
			<wy_dof>1</wy_dof>
			<wz_dof>0</wz_dof>
		</bc>
		<bc name="FixedFluidDilatation1" node_set="@surface:FixedFluidDilatation1" type="zero fluid dilatation"/>
		<bc name="FluidPressure1" surface="FluidPressure1" type="fluid pressure">
			<pressure lc="1">200</pressure>
		</bc>
	</Boundary>
	<Loads>
		<surface_load name="FSIInterfaceTraction1" surface="FSIInterfaceTraction1" type="fluid-FSI traction">
			<shell_bottom>0</shell_bottom>
		</surface_load>
		<surface_load name="FluidTangentialStabilization1" surface="FluidTangentialStabilization1" type="fluid tangential stabilization">
			<beta lc="2">1</beta>
		</surface_load>
		<surface_load name="FluidTangentialStabilization2" surface="FluidTangentialStabilization2" type="fluid tangential stabilization">
			<beta lc="3">1</beta>
		</surface_load>
	</Loads>
	<Constraints>
		<constraint type="uniform fluid flow" name="UniformFluidFlow1" surface="UniformFluidFlow1">
			<laugon>LAGMULT</laugon>
			<tol>0.2</tol>
			<penalty>10000</penalty>
			<minaug>0</minaug>
			<maxaug>10</maxaug>
		</constraint>
		<constraint type="uniform fluid flow" name="UniformFluidFlow2" surface="UniformFluidFlow2">
			<laugon>LAGMULT</laugon>
			<tol>0.2</tol>
			<penalty>10000</penalty>
			<minaug>0</minaug>
			<maxaug>10</maxaug>
		</constraint>
	</Constraints>
	<LoadData>
		<load_controller id="1" name="LC1" type="loadcurve">
			<interpolate>SMOOTH</interpolate>
			<extend>CONSTANT</extend>
			<points>
				<pt>0,0</pt>
				<pt>0.1,0.309016994375</pt>
				<pt>0.2,0.587785252292</pt>
				<pt>0.3,0.809016994375</pt>
				<pt>0.4,0.951056516295</pt>
				<pt>0.5,1</pt>
				<pt>0.6,0.951056516295</pt>
				<pt>0.7,0.809016994375</pt>
				<pt>0.8,0.587785252292</pt>
				<pt>0.9,0.309016994375</pt>
				<pt>1,1.22464679915e-16</pt>
				<pt>1.1,-0.309016994375</pt>
				<pt>1.2,-0.587785252292</pt>
				<pt>1.3,-0.809016994375</pt>
				<pt>1.4,-0.951056516295</pt>
				<pt>1.5,-1</pt>
				<pt>1.6,-0.951056516295</pt>
				<pt>1.7,-0.809016994375</pt>
				<pt>1.8,-0.587785252292</pt>
				<pt>1.9,-0.309016994375</pt>
				<pt>2,-2.44929359829e-16</pt>
			</points>
		</load_controller>
		<load_controller id="2" name="LC2" type="loadcurve">
			<interpolate>SMOOTH</interpolate>
			<extend>CONSTANT</extend>
			<points>
				<pt>0,0</pt>
				<pt>1,1</pt>
			</points>
		</load_controller>
		<load_controller id="3" name="LC3" type="loadcurve">
			<interpolate>SMOOTH</interpolate>
			<extend>CONSTANT</extend>
			<points>
				<pt>0,0</pt>
				<pt>1,1</pt>
			</points>
		</load_controller>
	</LoadData>
	<Output>
		<plotfile type="febio">
			<var type="acceleration"/>
			<var type="displacement"/>
			<var type="relative volume"/>
			<var type="stress"/>
			<var type="velocity"/>
			<var type="fluid acceleration"/>
			<var type="fluid dilatation"/>
			<var type="fluid pressure"/>
			<var type="fluid rate of deformation"/>
			<var type="fluid stress"/>
			<var type="fluid velocity"/>
			<var type="fluid volume ratio"/>
			<var type="fluid vorticity"/>
			<var type="nodal fluid flux"/>
			<var type="fluid flux"/>
			<var type="solid stress"/>
		</plotfile>
	</Output>
</febio_spec>
