<?xml version="1.0" encoding="ISO-8859-1"?>
<febio_spec version="4.0">
	<Module type="fluid-FSI">
		<units>CGS</units>
	</Module>
	<Control>
		<analysis>DYNAMIC</analysis>
		<time_steps>100</time_steps>
		<step_size>0.01</step_size>
		<plot_zero_state>0</plot_zero_state>
		<plot_range>0,-1</plot_range>
		<plot_level>PLOT_MAJOR_ITRS</plot_level>
		<output_level>OUTPUT_MAJOR_ITRS</output_level>
		<plot_stride>1</plot_stride>
		<adaptor_re_solve>1</adaptor_re_solve>
		<time_stepper type="default">
			<max_retries>5</max_retries>
			<opt_iter>50</opt_iter>
			<dtmin>0</dtmin>
			<dtmax>0.01</dtmax>
			<aggressiveness>0</aggressiveness>
			<cutback>0.5</cutback>
			<dtforce>0</dtforce>
		</time_stepper>
		<solver type="fluid-FSI">
			<symmetric_stiffness>non-symmetric</symmetric_stiffness>
			<equation_scheme>staggered</equation_scheme>
			<equation_order>default</equation_order>
			<optimize_bw>0</optimize_bw>
			<lstol>0.9</lstol>
			<lsmin>0.01</lsmin>
			<lsiter>5</lsiter>
			<max_refs>5</max_refs>
			<check_zero_diagonal>0</check_zero_diagonal>
			<zero_diagonal_tol>0</zero_diagonal_tol>
			<force_partition>0</force_partition>
			<reform_each_time_step>0</reform_each_time_step>
			<reform_augment>0</reform_augment>
			<diverge_reform>0</diverge_reform>
			<min_residual>1e-20</min_residual>
			<max_residual>1e+20</max_residual>
			<dtol>0.001</dtol>
			<vtol>0.001</vtol>
			<ftol>0.001</ftol>
			<etol>0.01</etol>
			<rtol>0.001</rtol>
			<rhoi>0</rhoi>
			<predictor>0</predictor>
			<min_volume_ratio>0</min_volume_ratio>
			<order>2</order>
			<qn_method type="Broyden">
				<max_ups>50</max_ups>
				<max_buffer_size>0</max_buffer_size>
				<cycle_buffer>1</cycle_buffer>
				<cmax>100000</cmax>
			</qn_method>
			<linear_solver type="mkl_dss"/>
		</solver>
	</Control>
	<Globals>
		<Constants>
			<T>0</T>
			<P>0</P>
			<R>83.1446</R>
			<Fc>9.64853</Fc>
		</Constants>
	</Globals>
	<Material>
		<material id="1" name="Plate" type="rigid body">
			<density>1</density>
			<E>1</E>
			<v>0</v>
		</material>
		<material id="2" name="Material2" type="fluid-FSI">
			<solid type="neo-Hookean">
				<density>0</density>
				<E>1</E>
				<v>0</v>
			</solid>
			<fluid>
				<density>1</density>
				<k>1e+10</k>
				<viscous type="Newtonian fluid">
					<kappa>0</kappa>
					<mu>0.01</mu>
				</viscous>
			</fluid>
		</material>
	</Material>
	<Mesh>
		<Nodes name="Object1">
			<node id="1">-2.5,-2.5,0</node>
			<node id="2">2.5,-2.5,0</node>
			<node id="3">2.5,2.5,0</node>
			<node id="4">-2.5,2.5,0</node>
			<node id="5">-2.5,-2.5,0.5</node>
			<node id="6">2.5,-2.5,0.5</node>
			<node id="7">2.5,2.5,0.5</node>
			<node id="8">-2.5,2.5,0.5</node>
			<node id="9">-2.4,-2.5,0</node>
			<node id="10">-2.3,-2.5,0</node>
			<node id="11">-2.2,-2.5,0</node>
			<node id="12">-2.1,-2.5,0</node>
			<node id="13">-2,-2.5,0</node>
			<node id="14">-1.9,-2.5,0</node>
			<node id="15">-1.8,-2.5,0</node>
			<node id="16">-1.7,-2.5,0</node>
			<node id="17">-1.6,-2.5,0</node>
			<node id="18">-1.5,-2.5,0</node>
			<node id="19">-1.4,-2.5,0</node>
			<node id="20">-1.3,-2.5,0</node>
<!-- ... 5538 like lines cut -->
		</Nodes>
		<Elements type="hex8" name="Part1">
			<elem id="1">1,9,2715,351,5,106,2764,352</elem>
			<elem id="2">9,10,2716,2715,106,105,2765,2764</elem>
			<elem id="3">10,11,2717,2716,105,104,2766,2765</elem>
			<elem id="4">11,12,2718,2717,104,103,2767,2766</elem>
			<elem id="5">12,13,2719,2718,103,102,2768,2767</elem>
			<elem id="6">13,14,2720,2719,102,101,2769,2768</elem>
			<elem id="7">14,15,2721,2720,101,100,2770,2769</elem>
			<elem id="8">15,16,2722,2721,100,99,2771,2770</elem>
			<elem id="9">16,17,2723,2722,99,98,2772,2771</elem>
			<elem id="10">17,18,2724,2723,98,97,2773,2772</elem>
			<elem id="11">18,19,2725,2724,97,96,2774,2773</elem>
			<elem id="12">19,20,2726,2725,96,95,2775,2774</elem>
			<elem id="13">20,21,2727,2726,95,94,2776,2775</elem>
			<elem id="14">21,22,2728,2727,94,93,2777,2776</elem>
			<elem id="15">22,23,2729,2728,93,92,2778,2777</elem>
			<elem id="16">23,24,2730,2729,92,91,2779,2778</elem>
			<elem id="17">24,25,2731,2730,91,90,2780,2779</elem>
			<elem id="18">25,26,2732,2731,90,89,2781,2780</elem>
			<elem id="19">26,27,2733,2732,89,88,2782,2781</elem>
			<elem id="20">27,28,2734,2733,88,87,2783,2782</elem>
<!-- ... 2632 like lines cut -->
		</Elements>
		<Elements type="penta6" name="Part1__2">
			<elem id="2653">1602,5298,5530,3905,5306,5534</elem>
			<elem id="2654">1602,5530,5131,3905,5534,5139</elem>
			<elem id="2655">1622,5290,5538,3925,5294,5542</elem>
			<elem id="2656">1622,5538,5311,3925,5542,5319</elem>
			<elem id="2657">1493,5366,5546,4014,5374,5550</elem>
			<elem id="2658">1493,5546,5343,4014,5550,5347</elem>
			<elem id="2659">1513,5354,5554,4034,5358,5558</elem>
			<elem id="2660">1513,5554,5519,4034,5558,5523</elem>
		</Elements>
		<Surface name="Rigid1">
			<quad4 id="1">1603,1602,3905,3906</quad4>
			<quad4 id="2">1604,1603,3906,3907</quad4>
			<quad4 id="3">1605,1604,3907,3908</quad4>
			<quad4 id="4">1606,1605,3908,3909</quad4>
			<quad4 id="5">1607,1606,3909,3910</quad4>
			<quad4 id="6">1608,1607,3910,3911</quad4>
			<quad4 id="7">1609,1608,3911,3912</quad4>
			<quad4 id="8">1610,1609,3912,3913</quad4>
			<quad4 id="9">1611,1610,3913,3914</quad4>
			<quad4 id="10">1612,1611,3914,3915</quad4>
			<quad4 id="11">1613,1612,3915,3916</quad4>
			<quad4 id="12">1614,1613,3916,3917</quad4>
			<quad4 id="13">1615,1614,3917,3918</quad4>
			<quad4 id="14">1616,1615,3918,3919</quad4>
			<quad4 id="15">1617,1616,3919,3920</quad4>
			<quad4 id="16">1618,1617,3920,3921</quad4>
			<quad4 id="17">1619,1618,3921,3922</quad4>
			<quad4 id="18">1620,1619,3922,3923</quad4>
			<quad4 id="19">1621,1620,3923,3924</quad4>
			<quad4 id="20">1622,1621,3924,3925</quad4>
<!-- ... 26 like lines cut -->
		</Surface>
		<Surface name="ZeroDisplacement2">
			<quad4 id="1">351,2715,9,1</quad4>
			<quad4 id="2">2715,2716,10,9</quad4>
			<quad4 id="3">2716,2717,11,10</quad4>
			<quad4 id="4">2717,2718,12,11</quad4>
			<quad4 id="5">2718,2719,13,12</quad4>
			<quad4 id="6">2719,2720,14,13</quad4>
			<quad4 id="7">2720,2721,15,14</quad4>
			<quad4 id="8">2721,2722,16,15</quad4>
			<quad4 id="9">2722,2723,17,16</quad4>
			<quad4 id="10">2723,2724,18,17</quad4>
			<quad4 id="11">2724,2725,19,18</quad4>
			<quad4 id="12">2725,2726,20,19</quad4>
			<quad4 id="13">2726,2727,21,20</quad4>
			<quad4 id="14">2727,2728,22,21</quad4>
			<quad4 id="15">2728,2729,23,22</quad4>
			<quad4 id="16">2729,2730,24,23</quad4>
			<quad4 id="17">2730,2731,25,24</quad4>
			<quad4 id="18">2731,2732,26,25</quad4>
			<quad4 id="19">2732,2733,27,26</quad4>
			<quad4 id="20">2733,2734,28,27</quad4>
<!-- ... 2600 like lines cut -->
			<tri3 id="2621">1602,5530,5298</tri3>
			<quad4 id="2622">5529,5297,5298,5530</quad4>
			<quad4 id="2623">5528,5296,5297,5529</quad4>
			<quad4 id="2624">5527,5295,5296,5528</quad4>
			<quad4 id="2625">1650,1601,5295,5527</quad4>
			<tri3 id="2626">1602,5131,5530</tri3>
			<quad4 id="2627">5132,5529,5530,5131</quad4>
			<quad4 id="2628">5133,5528,5529,5132</quad4>
			<quad4 id="2629">5134,5527,5528,5133</quad4>
			<quad4 id="2630">1651,1650,5527,5134</quad4>
			<tri3 id="2631">1622,5538,5290</tri3>
			<quad4 id="2632">5537,5289,5290,5538</quad4>
			<quad4 id="2633">5536,5288,5289,5537</quad4>
			<quad4 id="2634">5535,5287,5288,5536</quad4>
			<quad4 id="2635">1672,1671,5287,5535</quad4>
			<tri3 id="2636">1622,5311,5538</tri3>
			<quad4 id="2637">5312,5537,5538,5311</quad4>
			<quad4 id="2638">5313,5536,5537,5312</quad4>
			<quad4 id="2639">5314,5535,5536,5313</quad4>
			<quad4 id="2640">1623,1672,5535,5314</quad4>
			<tri3 id="2641">1493,5546,5366</tri3>
			<quad4 id="2642">5545,5365,5366,5546</quad4>
			<quad4 id="2643">5544,5364,5365,5545</quad4>
			<quad4 id="2644">5543,5363,5364,5544</quad4>
			<quad4 id="2645">1443,1444,5363,5543</quad4>
			<tri3 id="2646">1493,5343,5546</tri3>
			<quad4 id="2647">5344,5545,5546,5343</quad4>
			<quad4 id="2648">5345,5544,5545,5344</quad4>
			<quad4 id="2649">5346,5543,5544,5345</quad4>
			<quad4 id="2650">1492,1443,5543,5346</quad4>
			<tri3 id="2651">1513,5554,5354</tri3>
			<quad4 id="2652">5553,5353,5354,5554</quad4>
			<quad4 id="2653">5552,5352,5353,5553</quad4>
			<quad4 id="2654">5551,5351,5352,5552</quad4>
			<quad4 id="2655">1465,1514,5351,5551</quad4>
			<tri3 id="2656">1513,5519,5554</tri3>
			<quad4 id="2657">5520,5553,5554,5519</quad4>
			<quad4 id="2658">5521,5552,5553,5520</quad4>
			<quad4 id="2659">5522,5551,5552,5521</quad4>
			<quad4 id="2660">1464,1465,5551,5522</quad4>
			<quad4 id="2661">5,106,2764,352</quad4>
			<quad4 id="2662">106,105,2765,2764</quad4>
			<quad4 id="2663">105,104,2766,2765</quad4>
			<quad4 id="2664">104,103,2767,2766</quad4>
			<quad4 id="2665">103,102,2768,2767</quad4>
			<quad4 id="2666">102,101,2769,2768</quad4>
			<quad4 id="2667">101,100,2770,2769</quad4>
			<quad4 id="2668">100,99,2771,2770</quad4>
			<quad4 id="2669">99,98,2772,2771</quad4>
			<quad4 id="2670">98,97,2773,2772</quad4>
			<quad4 id="2671">97,96,2774,2773</quad4>
			<quad4 id="2672">96,95,2775,2774</quad4>
			<quad4 id="2673">95,94,2776,2775</quad4>
			<quad4 id="2674">94,93,2777,2776</quad4>
			<quad4 id="2675">93,92,2778,2777</quad4>
			<quad4 id="2676">92,91,2779,2778</quad4>
<!-- ... 2604 like lines cut -->
			<tri3 id="5281">3905,5306,5534</tri3>
			<quad4 id="5282">5534,5306,5305,5533</quad4>
			<quad4 id="5283">5533,5305,5304,5532</quad4>
			<quad4 id="5284">5532,5304,5303,5531</quad4>
			<quad4 id="5285">5531,5303,3904,3855</quad4>
			<tri3 id="5286">3905,5534,5139</tri3>
			<quad4 id="5287">5139,5534,5533,5140</quad4>
			<quad4 id="5288">5140,5533,5532,5141</quad4>
			<quad4 id="5289">5141,5532,5531,5142</quad4>
			<quad4 id="5290">5142,5531,3855,3856</quad4>
			<tri3 id="5291">3925,5294,5542</tri3>
			<quad4 id="5292">5542,5294,5293,5541</quad4>
			<quad4 id="5293">5541,5293,5292,5540</quad4>
			<quad4 id="5294">5540,5292,5291,5539</quad4>
			<quad4 id="5295">5539,5291,3876,3877</quad4>
			<tri3 id="5296">3925,5542,5319</tri3>
			<quad4 id="5297">5319,5542,5541,5320</quad4>
			<quad4 id="5298">5320,5541,5540,5321</quad4>
			<quad4 id="5299">5321,5540,5539,5322</quad4>
			<quad4 id="5300">5322,5539,3877,3926</quad4>
			<tri3 id="5301">4014,5374,5550</tri3>
			<quad4 id="5302">5550,5374,5373,5549</quad4>
			<quad4 id="5303">5549,5373,5372,5548</quad4>
			<quad4 id="5304">5548,5372,5371,5547</quad4>
			<quad4 id="5305">5547,5371,4063,4062</quad4>
			<tri3 id="5306">4014,5550,5347</tri3>
			<quad4 id="5307">5347,5550,5549,5348</quad4>
			<quad4 id="5308">5348,5549,5548,5349</quad4>
			<quad4 id="5309">5349,5548,5547,5350</quad4>
			<quad4 id="5310">5350,5547,4062,4013</quad4>
			<tri3 id="5311">4034,5358,5558</tri3>
			<quad4 id="5312">5558,5358,5357,5557</quad4>
			<quad4 id="5313">5557,5357,5356,5556</quad4>
			<quad4 id="5314">5556,5356,5355,5555</quad4>
			<quad4 id="5315">5555,5355,4035,4084</quad4>
			<tri3 id="5316">4034,5558,5523</tri3>
			<quad4 id="5317">5523,5558,5557,5524</quad4>
			<quad4 id="5318">5524,5557,5556,5525</quad4>
			<quad4 id="5319">5525,5556,5555,5526</quad4>
			<quad4 id="5320">5526,5555,4084,4083</quad4>
		</Surface>
		<Surface name="ZeroDisplacement3">
			<quad4 id="1">351,1,5,352</quad4>
			<quad4 id="2">350,351,352,353</quad4>
			<quad4 id="3">349,350,353,354</quad4>
			<quad4 id="4">348,349,354,355</quad4>
			<quad4 id="5">347,348,355,356</quad4>
			<quad4 id="6">346,347,356,357</quad4>
			<quad4 id="7">345,346,357,358</quad4>
			<quad4 id="8">344,345,358,359</quad4>
			<quad4 id="9">343,344,359,360</quad4>
			<quad4 id="10">342,343,360,361</quad4>
			<quad4 id="11">341,342,361,362</quad4>
			<quad4 id="12">340,341,362,363</quad4>
			<quad4 id="13">339,340,363,364</quad4>
			<quad4 id="14">338,339,364,365</quad4>
			<quad4 id="15">337,338,365,366</quad4>
			<quad4 id="16">336,337,366,367</quad4>
			<quad4 id="17">335,336,367,368</quad4>
			<quad4 id="18">334,335,368,369</quad4>
			<quad4 id="19">333,334,369,370</quad4>
			<quad4 id="20">332,333,370,371</quad4>
<!-- ... 80 like lines cut -->
		</Surface>
		<Surface name="ZeroDisplacement4">
			<quad4 id="1">1,9,106,5</quad4>
			<quad4 id="2">9,10,105,106</quad4>
			<quad4 id="3">10,11,104,105</quad4>
			<quad4 id="4">11,12,103,104</quad4>
			<quad4 id="5">12,13,102,103</quad4>
			<quad4 id="6">13,14,101,102</quad4>
			<quad4 id="7">14,15,100,101</quad4>
			<quad4 id="8">15,16,99,100</quad4>
			<quad4 id="9">16,17,98,99</quad4>
			<quad4 id="10">17,18,97,98</quad4>
			<quad4 id="11">18,19,96,97</quad4>
			<quad4 id="12">19,20,95,96</quad4>
			<quad4 id="13">20,21,94,95</quad4>
			<quad4 id="14">21,22,93,94</quad4>
			<quad4 id="15">22,23,92,93</quad4>
			<quad4 id="16">23,24,91,92</quad4>
			<quad4 id="17">24,25,90,91</quad4>
			<quad4 id="18">25,26,89,90</quad4>
			<quad4 id="19">26,27,88,89</quad4>
			<quad4 id="20">27,28,87,88</quad4>
<!-- ... 80 like lines cut -->
		</Surface>
		<Surface name="ZeroFluidVelocity5">
			<quad4 id="1">351,2715,9,1</quad4>
			<quad4 id="2">2715,2716,10,9</quad4>
			<quad4 id="3">2716,2717,11,10</quad4>
			<quad4 id="4">2717,2718,12,11</quad4>
			<quad4 id="5">2718,2719,13,12</quad4>
			<quad4 id="6">2719,2720,14,13</quad4>
			<quad4 id="7">2720,2721,15,14</quad4>
			<quad4 id="8">2721,2722,16,15</quad4>
			<quad4 id="9">2722,2723,17,16</quad4>
			<quad4 id="10">2723,2724,18,17</quad4>
			<quad4 id="11">2724,2725,19,18</quad4>
			<quad4 id="12">2725,2726,20,19</quad4>
			<quad4 id="13">2726,2727,21,20</quad4>
			<quad4 id="14">2727,2728,22,21</quad4>
			<quad4 id="15">2728,2729,23,22</quad4>
			<quad4 id="16">2729,2730,24,23</quad4>
			<quad4 id="17">2730,2731,25,24</quad4>
			<quad4 id="18">2731,2732,26,25</quad4>
			<quad4 id="19">2732,2733,27,26</quad4>
			<quad4 id="20">2733,2734,28,27</quad4>
<!-- ... 2600 like lines cut -->
			<tri3 id="2621">1602,5530,5298</tri3>
			<quad4 id="2622">5529,5297,5298,5530</quad4>
			<quad4 id="2623">5528,5296,5297,5529</quad4>
			<quad4 id="2624">5527,5295,5296,5528</quad4>
			<quad4 id="2625">1650,1601,5295,5527</quad4>
			<tri3 id="2626">1602,5131,5530</tri3>
			<quad4 id="2627">5132,5529,5530,5131</quad4>
			<quad4 id="2628">5133,5528,5529,5132</quad4>
			<quad4 id="2629">5134,5527,5528,5133</quad4>
			<quad4 id="2630">1651,1650,5527,5134</quad4>
			<tri3 id="2631">1622,5538,5290</tri3>
			<quad4 id="2632">5537,5289,5290,5538</quad4>
			<quad4 id="2633">5536,5288,5289,5537</quad4>
			<quad4 id="2634">5535,5287,5288,5536</quad4>
			<quad4 id="2635">1672,1671,5287,5535</quad4>
			<tri3 id="2636">1622,5311,5538</tri3>
			<quad4 id="2637">5312,5537,5538,5311</quad4>
			<quad4 id="2638">5313,5536,5537,5312</quad4>
			<quad4 id="2639">5314,5535,5536,5313</quad4>
			<quad4 id="2640">1623,1672,5535,5314</quad4>
			<tri3 id="2641">1493,5546,5366</tri3>
			<quad4 id="2642">5545,5365,5366,5546</quad4>
			<quad4 id="2643">5544,5364,5365,5545</quad4>
			<quad4 id="2644">5543,5363,5364,5544</quad4>
			<quad4 id="2645">1443,1444,5363,5543</quad4>
			<tri3 id="2646">1493,5343,5546</tri3>
			<quad4 id="2647">5344,5545,5546,5343</quad4>
			<quad4 id="2648">5345,5544,5545,5344</quad4>
			<quad4 id="2649">5346,5543,5544,5345</quad4>
			<quad4 id="2650">1492,1443,5543,5346</quad4>
			<tri3 id="2651">1513,5554,5354</tri3>
			<quad4 id="2652">5553,5353,5354,5554</quad4>
			<quad4 id="2653">5552,5352,5353,5553</quad4>
			<quad4 id="2654">5551,5351,5352,5552</quad4>
			<quad4 id="2655">1465,1514,5351,5551</quad4>
			<tri3 id="2656">1513,5519,5554</tri3>
			<quad4 id="2657">5520,5553,5554,5519</quad4>
			<quad4 id="2658">5521,5552,5553,5520</quad4>
			<quad4 id="2659">5522,5551,5552,5521</quad4>
			<quad4 id="2660">1464,1465,5551,5522</quad4>
			<quad4 id="2661">5,106,2764,352</quad4>
			<quad4 id="2662">106,105,2765,2764</quad4>
			<quad4 id="2663">105,104,2766,2765</quad4>
			<quad4 id="2664">104,103,2767,2766</quad4>
			<quad4 id="2665">103,102,2768,2767</quad4>
			<quad4 id="2666">102,101,2769,2768</quad4>
			<quad4 id="2667">101,100,2770,2769</quad4>
			<quad4 id="2668">100,99,2771,2770</quad4>
			<quad4 id="2669">99,98,2772,2771</quad4>
			<quad4 id="2670">98,97,2773,2772</quad4>
			<quad4 id="2671">97,96,2774,2773</quad4>
			<quad4 id="2672">96,95,2775,2774</quad4>
			<quad4 id="2673">95,94,2776,2775</quad4>
			<quad4 id="2674">94,93,2777,2776</quad4>
			<quad4 id="2675">93,92,2778,2777</quad4>
			<quad4 id="2676">92,91,2779,2778</quad4>
<!-- ... 2604 like lines cut -->
			<tri3 id="5281">3905,5306,5534</tri3>
			<quad4 id="5282">5534,5306,5305,5533</quad4>
			<quad4 id="5283">5533,5305,5304,5532</quad4>
			<quad4 id="5284">5532,5304,5303,5531</quad4>
			<quad4 id="5285">5531,5303,3904,3855</quad4>
			<tri3 id="5286">3905,5534,5139</tri3>
			<quad4 id="5287">5139,5534,5533,5140</quad4>
			<quad4 id="5288">5140,5533,5532,5141</quad4>
			<quad4 id="5289">5141,5532,5531,5142</quad4>
			<quad4 id="5290">5142,5531,3855,3856</quad4>
			<tri3 id="5291">3925,5294,5542</tri3>
			<quad4 id="5292">5542,5294,5293,5541</quad4>
			<quad4 id="5293">5541,5293,5292,5540</quad4>
			<quad4 id="5294">5540,5292,5291,5539</quad4>
			<quad4 id="5295">5539,5291,3876,3877</quad4>
			<tri3 id="5296">3925,5542,5319</tri3>
			<quad4 id="5297">5319,5542,5541,5320</quad4>
			<quad4 id="5298">5320,5541,5540,5321</quad4>
			<quad4 id="5299">5321,5540,5539,5322</quad4>
			<quad4 id="5300">5322,5539,3877,3926</quad4>
			<tri3 id="5301">4014,5374,5550</tri3>
			<quad4 id="5302">5550,5374,5373,5549</quad4>
			<quad4 id="5303">5549,5373,5372,5548</quad4>
			<quad4 id="5304">5548,5372,5371,5547</quad4>
			<quad4 id="5305">5547,5371,4063,4062</quad4>
			<tri3 id="5306">4014,5550,5347</tri3>
			<quad4 id="5307">5347,5550,5549,5348</quad4>
			<quad4 id="5308">5348,5549,5548,5349</quad4>
			<quad4 id="5309">5349,5548,5547,5350</quad4>
			<quad4 id="5310">5350,5547,4062,4013</quad4>
			<tri3 id="5311">4034,5358,5558</tri3>
			<quad4 id="5312">5558,5358,5357,5557</quad4>
			<quad4 id="5313">5557,5357,5356,5556</quad4>
			<quad4 id="5314">5556,5356,5355,5555</quad4>
			<quad4 id="5315">5555,5355,4035,4084</quad4>
			<tri3 id="5316">4034,5558,5523</tri3>
			<quad4 id="5317">5523,5558,5557,5524</quad4>
			<quad4 id="5318">5524,5557,5556,5525</quad4>
			<quad4 id="5319">5525,5556,5555,5526</quad4>
			<quad4 id="5320">5526,5555,4084,4083</quad4>
		</Surface>
		<Surface name="ZeroFluidDilatation6">
			<quad4 id="1">2,107,204,6</quad4>
			<quad4 id="2">107,108,203,204</quad4>
			<quad4 id="3">108,109,202,203</quad4>
			<quad4 id="4">109,110,201,202</quad4>
			<quad4 id="5">110,111,200,201</quad4>
			<quad4 id="6">111,112,199,200</quad4>
			<quad4 id="7">112,113,198,199</quad4>
			<quad4 id="8">113,114,197,198</quad4>
			<quad4 id="9">114,115,196,197</quad4>
			<quad4 id="10">115,116,195,196</quad4>
			<quad4 id="11">116,117,194,195</quad4>
			<quad4 id="12">117,118,193,194</quad4>
			<quad4 id="13">118,119,192,193</quad4>
			<quad4 id="14">119,120,191,192</quad4>
			<quad4 id="15">120,121,190,191</quad4>
			<quad4 id="16">121,122,189,190</quad4>
			<quad4 id="17">122,123,188,189</quad4>
			<quad4 id="18">123,124,187,188</quad4>
			<quad4 id="19">124,125,186,187</quad4>
			<quad4 id="20">125,126,185,186</quad4>
<!-- ... 30 like lines cut -->
		</Surface>
		<Surface name="FluidNormalVelocity1">
			<quad4 id="1">351,1,5,352</quad4>
			<quad4 id="2">350,351,352,353</quad4>
			<quad4 id="3">349,350,353,354</quad4>
			<quad4 id="4">348,349,354,355</quad4>
			<quad4 id="5">347,348,355,356</quad4>
			<quad4 id="6">346,347,356,357</quad4>
			<quad4 id="7">345,346,357,358</quad4>
			<quad4 id="8">344,345,358,359</quad4>
			<quad4 id="9">343,344,359,360</quad4>
			<quad4 id="10">342,343,360,361</quad4>
			<quad4 id="11">341,342,361,362</quad4>
			<quad4 id="12">340,341,362,363</quad4>
			<quad4 id="13">339,340,363,364</quad4>
			<quad4 id="14">338,339,364,365</quad4>
			<quad4 id="15">337,338,365,366</quad4>
			<quad4 id="16">336,337,366,367</quad4>
			<quad4 id="17">335,336,367,368</quad4>
			<quad4 id="18">334,335,368,369</quad4>
			<quad4 id="19">333,334,369,370</quad4>
			<quad4 id="20">332,333,370,371</quad4>
<!-- ... 30 like lines cut -->
		</Surface>
		<Surface name="ZeroFluidVelocity7">
			<quad4 id="1">1603,1602,3905,3906</quad4>
			<quad4 id="2">1604,1603,3906,3907</quad4>
			<quad4 id="3">1605,1604,3907,3908</quad4>
			<quad4 id="4">1606,1605,3908,3909</quad4>
			<quad4 id="5">1607,1606,3909,3910</quad4>
			<quad4 id="6">1608,1607,3910,3911</quad4>
			<quad4 id="7">1609,1608,3911,3912</quad4>
			<quad4 id="8">1610,1609,3912,3913</quad4>
			<quad4 id="9">1611,1610,3913,3914</quad4>
			<quad4 id="10">1612,1611,3914,3915</quad4>
			<quad4 id="11">1613,1612,3915,3916</quad4>
			<quad4 id="12">1614,1613,3916,3917</quad4>
			<quad4 id="13">1615,1614,3917,3918</quad4>
			<quad4 id="14">1616,1615,3918,3919</quad4>
			<quad4 id="15">1617,1616,3919,3920</quad4>
			<quad4 id="16">1618,1617,3920,3921</quad4>
			<quad4 id="17">1619,1618,3921,3922</quad4>
			<quad4 id="18">1620,1619,3922,3923</quad4>
			<quad4 id="19">1621,1620,3923,3924</quad4>
			<quad4 id="20">1622,1621,3924,3925</quad4>
<!-- ... 26 like lines cut -->
		</Surface>
		<Surface name="FluidFSITraction2">
			<quad4 id="1">1603,1602,3905,3906</quad4>
			<quad4 id="2">1604,1603,3906,3907</quad4>
			<quad4 id="3">1605,1604,3907,3908</quad4>
			<quad4 id="4">1606,1605,3908,3909</quad4>
			<quad4 id="5">1607,1606,3909,3910</quad4>
			<quad4 id="6">1608,1607,3910,3911</quad4>
			<quad4 id="7">1609,1608,3911,3912</quad4>
			<quad4 id="8">1610,1609,3912,3913</quad4>
			<quad4 id="9">1611,1610,3913,3914</quad4>
			<quad4 id="10">1612,1611,3914,3915</quad4>
			<quad4 id="11">1613,1612,3915,3916</quad4>
			<quad4 id="12">1614,1613,3916,3917</quad4>
			<quad4 id="13">1615,1614,3917,3918</quad4>
			<quad4 id="14">1616,1615,3918,3919</quad4>
			<quad4 id="15">1617,1616,3919,3920</quad4>
			<quad4 id="16">1618,1617,3920,3921</quad4>
			<quad4 id="17">1619,1618,3921,3922</quad4>
			<quad4 id="18">1620,1619,3922,3923</quad4>
			<quad4 id="19">1621,1620,3923,3924</quad4>
			<quad4 id="20">1622,1621,3924,3925</quad4>
<!-- ... 26 like lines cut -->
		</Surface>
		<Surface name="FluidBackflowStabilization3">
			<quad4 id="1">2,107,204,6</quad4>
			<quad4 id="2">107,108,203,204</quad4>
			<quad4 id="3">108,109,202,203</quad4>
			<quad4 id="4">109,110,201,202</quad4>
			<quad4 id="5">110,111,200,201</quad4>
			<quad4 id="6">111,112,199,200</quad4>
			<quad4 id="7">112,113,198,199</quad4>
			<quad4 id="8">113,114,197,198</quad4>
			<quad4 id="9">114,115,196,197</quad4>
			<quad4 id="10">115,116,195,196</quad4>
			<quad4 id="11">116,117,194,195</quad4>
			<quad4 id="12">117,118,193,194</quad4>
			<quad4 id="13">118,119,192,193</quad4>
			<quad4 id="14">119,120,191,192</quad4>
			<quad4 id="15">120,121,190,191</quad4>
			<quad4 id="16">121,122,189,190</quad4>
			<quad4 id="17">122,123,188,189</quad4>
			<quad4 id="18">123,124,187,188</quad4>
			<quad4 id="19">124,125,186,187</quad4>
			<quad4 id="20">125,126,185,186</quad4>
<!-- ... 30 like lines cut -->
		</Surface>
		<Surface name="FluidTangentialStabilization4">
			<quad4 id="1">2,107,204,6</quad4>
			<quad4 id="2">107,108,203,204</quad4>
			<quad4 id="3">108,109,202,203</quad4>
			<quad4 id="4">109,110,201,202</quad4>
			<quad4 id="5">110,111,200,201</quad4>
			<quad4 id="6">111,112,199,200</quad4>
			<quad4 id="7">112,113,198,199</quad4>
			<quad4 id="8">113,114,197,198</quad4>
			<quad4 id="9">114,115,196,197</quad4>
			<quad4 id="10">115,116,195,196</quad4>
			<quad4 id="11">116,117,194,195</quad4>
			<quad4 id="12">117,118,193,194</quad4>
			<quad4 id="13">118,119,192,193</quad4>
			<quad4 id="14">119,120,191,192</quad4>
			<quad4 id="15">120,121,190,191</quad4>
			<quad4 id="16">121,122,189,190</quad4>
			<quad4 id="17">122,123,188,189</quad4>
			<quad4 id="18">123,124,187,188</quad4>
			<quad4 id="19">124,125,186,187</quad4>
			<quad4 id="20">125,126,185,186</quad4>
<!-- ... 30 like lines cut -->
		</Surface>
	</Mesh>
	<MeshDomains>
		<SolidDomain name="Part1" mat="Material2"/>
		<SolidDomain name="Part1__2" mat="Material2"/>
	</MeshDomains>
	<Boundary>
		<bc name="Rigid1" node_set="@surface:Rigid1" type="rigid">
			<rb>Plate</rb>
		</bc>
		<bc name="ZeroDisplacement2" node_set="@surface:ZeroDisplacement2" type="zero displacement">
			<x_dof>0</x_dof>
			<y_dof>0</y_dof>
			<z_dof>1</z_dof>
		</bc>
		<bc name="ZeroDisplacement3" node_set="@surface:ZeroDisplacement3" type="zero displacement">
			<x_dof>1</x_dof>
			<y_dof>0</y_dof>
			<z_dof>0</z_dof>
		</bc>
		<bc name="ZeroDisplacement4" node_set="@surface:ZeroDisplacement4" type="zero displacement">
			<x_dof>0</x_dof>
			<y_dof>1</y_dof>
			<z_dof>0</z_dof>
		</bc>
		<bc name="ZeroFluidVelocity5" node_set="@surface:ZeroFluidVelocity5" type="zero fluid velocity">
			<wx_dof>0</wx_dof>
			<wy_dof>0</wy_dof>
			<wz_dof>1</wz_dof>
		</bc>
		<bc name="ZeroFluidDilatation6" node_set="@surface:ZeroFluidDilatation6" type="zero fluid dilatation"/>
		<bc name="ZeroFluidVelocity7" node_set="@surface:ZeroFluidVelocity7" type="zero fluid velocity">
			<wx_dof>1</wx_dof>
			<wy_dof>1</wy_dof>
			<wz_dof>0</wz_dof>
		</bc>
	</Boundary>
	<Rigid>
		<rigid_bc name="RigidConstraint1" type="rigid_fixed">
			<rb>Plate</rb>
			<Rx_dof>1</Rx_dof>
			<Ry_dof>1</Ry_dof>
			<Rz_dof>1</Rz_dof>
			<Ru_dof>1</Ru_dof>
			<Rv_dof>1</Rv_dof>
			<Rw_dof>0</Rw_dof>
		</rigid_bc>
		<rigid_bc name="RigidConstraint2" type="rigid_rotation">
			<rb>Plate</rb>
			<dof>Rw</dof>
			<value lc="1">0.5236</value>
			<relative>0</relative>
		</rigid_bc>
	</Rigid>
	<Loads>
		<surface_load name="FluidNormalVelocity1" surface="FluidNormalVelocity1" type="fluid normal velocity">
			<velocity lc="2">-5</velocity>
			<prescribe_nodal_velocities>1</prescribe_nodal_velocities>
			<parabolic>0</parabolic>
			<prescribe_rim_pressure>1</prescribe_rim_pressure>
		</surface_load>
		<surface_load name="FluidFSITraction2" surface="FluidFSITraction2" type="fluid-FSI traction">
			<shell_bottom>0</shell_bottom>
		</surface_load>
		<surface_load name="FluidBackflowStabilization3" surface="FluidBackflowStabilization3" type="fluid backflow stabilization">
			<beta>1</beta>
		</surface_load>
		<surface_load name="FluidTangentialStabilization4" surface="FluidTangentialStabilization4" type="fluid tangential stabilization">
			<beta>1</beta>
		</surface_load>
	</Loads>
	<LoadData>
		<load_controller id="1" name="LC2" type="loadcurve">
			<interpolate>LINEAR</interpolate>
			<extend>CONSTANT</extend>
			<points>
				<pt>0,0</pt>
				<pt>1,1</pt>
			</points>
		</load_controller>
		<load_controller id="2" name="LC3" type="loadcurve">
			<interpolate>LINEAR</interpolate>
			<extend>CONSTANT</extend>
			<points>
				<pt>0,0</pt>
				<pt>0.1,1</pt>
			</points>
		</load_controller>
	</LoadData>
	<Output>
		<plotfile type="febio">
			<var type="displacement"/>
			<var type="velocity"/>
			<var type="acceleration"/>
			<var type="fluid pressure"/>
			<var type="fluid stress"/>
			<var type="fluid velocity"/>
			<var type="fluid acceleration"/>
			<var type="fluid vorticity"/>
			<var type="fluid rate of deformation"/>
			<var type="fluid dilatation"/>
			<var type="fluid volume ratio"/>
			<var type="fluid surface force" surface="ZeroFluidVelocity7"/>
		</plotfile>
	</Output>
</febio_spec>
