<?xml version="1.0" encoding="ISO-8859-1"?>
<!--
Heat transfer problem as described in tutorial 7 in the PreView user's manual.
-->
<febio_spec version="4.0">
	<Module type="heat"/>
	<Control>
		<analysis>STEADY-STATE</analysis>
		<time_steps>10</time_steps>
		<step_size>0.1</step_size>
		<plot_zero_state>0</plot_zero_state>
		<plot_range>0,-1</plot_range>
		<plot_level>PLOT_MAJOR_ITRS</plot_level>
		<output_level>OUTPUT_MAJOR_ITRS</output_level>
		<plot_stride>1</plot_stride>
		<adaptor_re_solve>1</adaptor_re_solve>
		<time_stepper type="default">
			<max_retries>5</max_retries>
			<opt_iter>10</opt_iter>
			<dtmin>0.01</dtmin>
			<dtmax>0.1</dtmax>
			<aggressiveness>0</aggressiveness>
			<cutback>0.5</cutback>
			<dtforce>0</dtforce>
		</time_stepper>
		<solver type="heat">
			<symmetric_stiffness>symmetric</symmetric_stiffness>
			<equation_scheme>staggered</equation_scheme>
			<equation_order>default</equation_order>
			<optimize_bw>0</optimize_bw>
		</solver>
	</Control>
	<Globals>
		<Constants>
			<T>0</T>
			<R>0</R>
			<Fc>0</Fc>
		</Constants>
	</Globals>
	<Material>
		<material id="1" name="Material1" type="isotropic Fourier">
			<density>1</density>
			<k>0.4</k>
			<c>1</c>
		</material>
	</Material>
	<Mesh>
		<Nodes name="Object01">
			<node id="1">-0.05,-0.025,0</node>
			<node id="2">-0.05,-0.025,0.01</node>
			<node id="3">-0.05,-0.02,0</node>
			<node id="4">-0.05,-0.02,0.01</node>
			<node id="5">-0.05,-0.015,0</node>
			<node id="6">-0.05,-0.015,0.01</node>
			<node id="7">-0.05,-0.01,0</node>
			<node id="8">-0.05,-0.01,0.01</node>
			<node id="9">-0.05,-0.005,0</node>
			<node id="10">-0.05,-0.005,0.01</node>
			<node id="11">-0.05,1.7347235e-18,0</node>
			<node id="12">-0.05,1.7347235e-18,0.01</node>
			<node id="13">-0.05,0.005,0</node>
			<node id="14">-0.05,0.005,0.01</node>
			<node id="15">-0.05,0.01,0</node>
			<node id="16">-0.05,0.01,0.01</node>
			<node id="17">-0.05,0.015,0</node>
			<node id="18">-0.05,0.015,0.01</node>
			<node id="19">-0.05,0.02,0</node>
			<node id="20">-0.05,0.02,0.01</node>
<!-- ... 442 like lines cut -->
		</Nodes>
		<Elements type="hex8" name="Part1">
			<elem id="1">1,23,25,3,2,24,26,4</elem>
			<elem id="2">3,25,27,5,4,26,28,6</elem>
			<elem id="3">5,27,29,7,6,28,30,8</elem>
			<elem id="4">7,29,31,9,8,30,32,10</elem>
			<elem id="5">9,31,33,11,10,32,34,12</elem>
			<elem id="6">11,33,35,13,12,34,36,14</elem>
			<elem id="7">13,35,37,15,14,36,38,16</elem>
			<elem id="8">15,37,39,17,16,38,40,18</elem>
			<elem id="9">17,39,41,19,18,40,42,20</elem>
			<elem id="10">19,41,43,21,20,42,44,22</elem>
			<elem id="11">23,45,47,25,24,46,48,26</elem>
			<elem id="12">25,47,49,27,26,48,50,28</elem>
			<elem id="13">27,49,51,29,28,50,52,30</elem>
			<elem id="14">29,51,53,31,30,52,54,32</elem>
			<elem id="15">31,53,55,33,32,54,56,34</elem>
			<elem id="16">33,55,57,35,34,56,58,36</elem>
			<elem id="17">35,57,59,37,36,58,60,38</elem>
			<elem id="18">37,59,61,39,38,60,62,40</elem>
			<elem id="19">39,61,63,41,40,62,64,42</elem>
			<elem id="20">41,63,65,43,42,64,66,44</elem>
<!-- ... 180 like lines cut -->
		</Elements>
		<NodeSet name="PrescribedBC137">
			441, 442, 443, 444, 445, 446, 447, 448,
			449, 450, 451, 452, 453, 454, 455, 456,
			457, 458, 459, 460, 461, 462
		</NodeSet>
		<NodeSet name="unnamed_set01">
			2
		</NodeSet>
		<Surface name="surface02">
			<quad4 id="1">21,19,20,22</quad4>
			<quad4 id="2">19,17,18,20</quad4>
			<quad4 id="3">17,15,16,18</quad4>
			<quad4 id="4">15,13,14,16</quad4>
			<quad4 id="5">13,11,12,14</quad4>
			<quad4 id="6">11,9,10,12</quad4>
			<quad4 id="7">9,7,8,10</quad4>
			<quad4 id="8">7,5,6,8</quad4>
			<quad4 id="9">5,3,4,6</quad4>
			<quad4 id="10">3,1,2,4</quad4>
		</Surface>
		<Surface name="surface01">
			<quad4 id="1">461,439,440,462</quad4>
			<quad4 id="2">439,417,418,440</quad4>
			<quad4 id="3">417,395,396,418</quad4>
			<quad4 id="4">395,373,374,396</quad4>
			<quad4 id="5">373,351,352,374</quad4>
			<quad4 id="6">351,329,330,352</quad4>
			<quad4 id="7">329,307,308,330</quad4>
			<quad4 id="8">307,285,286,308</quad4>
			<quad4 id="9">285,263,264,286</quad4>
			<quad4 id="10">263,241,242,264</quad4>
			<quad4 id="11">241,219,220,242</quad4>
			<quad4 id="12">219,197,198,220</quad4>
			<quad4 id="13">197,175,176,198</quad4>
			<quad4 id="14">175,153,154,176</quad4>
			<quad4 id="15">153,131,132,154</quad4>
			<quad4 id="16">131,109,110,132</quad4>
			<quad4 id="17">109,87,88,110</quad4>
			<quad4 id="18">87,65,66,88</quad4>
			<quad4 id="19">65,43,44,66</quad4>
			<quad4 id="20">43,21,22,44</quad4>
		</Surface>
	</Mesh>
	<MeshDomains>
		<SolidDomain name="Part1" mat="Material1"/>
	</MeshDomains>
	<Boundary>
		<bc name="PrescribedBC137" node_set="PrescribedBC137" type="prescribed temperature">
			<value lc="1">1</value>
			<relative>0</relative>
		</bc>
	</Boundary>
	<Loads>
		<surface_load name="HeatFlux0" surface="surface02" type="heatflux">
			<flux lc="2">1</flux>
		</surface_load>
		<surface_load name="ConvectiveHeatFlux0" surface="surface01" type="convective_heatflux">
			<hc>60</hc>
			<Ta lc="3">25</Ta>
		</surface_load>
		<body_load type="heat_source">
			<Q lc="4">135300</Q>
		</body_load>
	</Loads>
	<LoadData>
		<load_controller id="1" name="LC1" type="loadcurve">
			<interpolate>SMOOTH</interpolate>
			<extend>CONSTANT</extend>
			<points>
				<pt>0,0</pt>
				<pt>1,25</pt>
			</points>
		</load_controller>
		<load_controller id="2" name="LC2" type="loadcurve">
			<interpolate>SMOOTH</interpolate>
			<extend>CONSTANT</extend>
			<points>
				<pt>0,0</pt>
				<pt>1,3500</pt>
			</points>
		</load_controller>
		<load_controller id="3" name="LC3" type="loadcurve">
			<interpolate>SMOOTH</interpolate>
			<extend>CONSTANT</extend>
			<points>
				<pt>0,0</pt>
				<pt>1,1</pt>
			</points>
		</load_controller>
		<load_controller id="4" name="LC4" type="loadcurve">
			<interpolate>SMOOTH</interpolate>
			<extend>CONSTANT</extend>
			<points>
				<pt>0,0</pt>
				<pt>1,1</pt>
			</points>
		</load_controller>
	</LoadData>
	<Output>
		<plotfile type="febio">
			<var type="temperature"/>
			<var type="heat flux"/>
		</plotfile>
	</Output>
</febio_spec>
