<?xml version="1.0" encoding="ISO-8859-1"?>
<!--
Modeling of ligament cyclic Stress Relaxation.

This problem is from the article "Finite element implementation of anisotropic
quasilinear viscoelasticity using a discrete spectrum approximation", Puso and Weiss,
Journal of Biomechanical Engineering, 1997
-->
<febio_spec version="4.0">
	<Module type="solid"/>
	<Control>
		<analysis>STATIC</analysis>
		<time_steps>200</time_steps>
		<step_size>0.5</step_size>
		<plot_zero_state>0</plot_zero_state>
		<plot_range>0,-1</plot_range>
		<plot_level>PLOT_MAJOR_ITRS</plot_level>
		<output_level>OUTPUT_MAJOR_ITRS</output_level>
		<plot_stride>1</plot_stride>
		<adaptor_re_solve>1</adaptor_re_solve>
		<time_stepper type="default">
			<max_retries>5</max_retries>
			<opt_iter>100</opt_iter>
			<dtmin>0.01</dtmin>
			<dtmax lc="1">0</dtmax>
			<aggressiveness>0</aggressiveness>
			<cutback>0.5</cutback>
			<dtforce>0</dtforce>
		</time_stepper>
		<solver type="solid">
			<symmetric_stiffness>symmetric</symmetric_stiffness>
			<equation_scheme>staggered</equation_scheme>
			<equation_order>default</equation_order>
			<optimize_bw>0</optimize_bw>
			<lstol>0.9</lstol>
			<lsmin>0.01</lsmin>
			<lsiter>5</lsiter>
			<max_refs>15</max_refs>
			<check_zero_diagonal>0</check_zero_diagonal>
			<zero_diagonal_tol>0</zero_diagonal_tol>
			<force_partition>0</force_partition>
			<reform_each_time_step>1</reform_each_time_step>
			<reform_augment>0</reform_augment>
			<diverge_reform>1</diverge_reform>
			<min_residual>1e-20</min_residual>
			<max_residual>0</max_residual>
			<dtol>0.001</dtol>
			<etol>0.01</etol>
			<rtol>0</rtol>
			<rhoi>-2</rhoi>
			<alpha>1</alpha>
			<beta>0.25</beta>
			<gamma>0.5</gamma>
			<logSolve>0</logSolve>
			<arc_length>0</arc_length>
			<arc_length_scale>0</arc_length_scale>
			<qn_method type="BFGS">
				<max_ups>10</max_ups>
				<max_buffer_size>0</max_buffer_size>
				<cycle_buffer>1</cycle_buffer>
				<cmax>100000</cmax>
			</qn_method>
		</solver>
	</Control>
	<Globals>
		<Constants>
			<T>0</T>
			<R>0</R>
			<Fc>0</Fc>
		</Constants>
	</Globals>
	<Material>
		<material id="1" name="Material1" type="uncoupled viscoelastic">
			<density>1</density>
			<k>5000</k>
			<pressure_model>default</pressure_model>
			<t1>0.01</t1>
			<t2>0.1</t2>
			<t3>1</t3>
			<t4>10</t4>
			<t5>100</t5>
			<t6>1</t6>
			<g0>1</g0>
			<g1>0.288</g1>
			<g2>0.288</g2>
			<g3>0.288</g3>
			<g4>0.288</g4>
			<g5>0.288</g5>
			<g6>0</g6>
			<elastic type="trans iso Mooney-Rivlin">
				<density>1</density>
				<k>0</k>
				<pressure_model>default</pressure_model>
				<c1>47.93</c1>
				<c2>-40.46</c2>
				<c3>2.36</c3>
				<c4>76.9</c4>
				<c5>1584</c5>
				<lam_max>1.03</lam_max>
				<fiber type="vector">
					<vector>0,1,0</vector>
				</fiber>
			</elastic>
		</material>
	</Material>
	<Mesh>
		<Nodes name="Object01">
			<node id="1">-0.5,-0.5,0</node>
			<node id="2">-0.5,-0.5,0.2</node>
			<node id="3">-0.5,-0.5,0.4</node>
			<node id="4">-0.5,-0.5,0.6</node>
			<node id="5">-0.5,-0.5,0.8</node>
			<node id="6">-0.5,-0.5,1</node>
			<node id="7">-0.5,-0.3,0</node>
			<node id="8">-0.5,-0.3,0.2</node>
			<node id="9">-0.5,-0.3,0.4</node>
			<node id="10">-0.5,-0.3,0.6</node>
			<node id="11">-0.5,-0.3,0.8</node>
			<node id="12">-0.5,-0.3,1</node>
			<node id="13">-0.5,-0.1,0</node>
			<node id="14">-0.5,-0.1,0.2</node>
			<node id="15">-0.5,-0.1,0.4</node>
			<node id="16">-0.5,-0.1,0.6</node>
			<node id="17">-0.5,-0.1,0.8</node>
			<node id="18">-0.5,-0.1,1</node>
			<node id="19">-0.5,0.1,0</node>
			<node id="20">-0.5,0.1,0.2</node>
<!-- ... 196 like lines cut -->
		</Nodes>
		<Elements type="hex8" name="Part7">
			<elem id="1">1,37,43,7,2,38,44,8</elem>
			<elem id="2">2,38,44,8,3,39,45,9</elem>
			<elem id="3">3,39,45,9,4,40,46,10</elem>
			<elem id="4">4,40,46,10,5,41,47,11</elem>
			<elem id="5">5,41,47,11,6,42,48,12</elem>
			<elem id="6">7,43,49,13,8,44,50,14</elem>
			<elem id="7">8,44,50,14,9,45,51,15</elem>
			<elem id="8">9,45,51,15,10,46,52,16</elem>
			<elem id="9">10,46,52,16,11,47,53,17</elem>
			<elem id="10">11,47,53,17,12,48,54,18</elem>
			<elem id="11">13,49,55,19,14,50,56,20</elem>
			<elem id="12">14,50,56,20,15,51,57,21</elem>
			<elem id="13">15,51,57,21,16,52,58,22</elem>
			<elem id="14">16,52,58,22,17,53,59,23</elem>
			<elem id="15">17,53,59,23,18,54,60,24</elem>
			<elem id="16">19,55,61,25,20,56,62,26</elem>
			<elem id="17">20,56,62,26,21,57,63,27</elem>
			<elem id="18">21,57,63,27,22,58,64,28</elem>
			<elem id="19">22,58,64,28,23,59,65,29</elem>
			<elem id="20">23,59,65,29,24,60,66,30</elem>
<!-- ... 105 like lines cut -->
		</Elements>
		<NodeSet name="FixedDisplacement01">
			1, 2, 3, 4, 5, 6, 37, 38,
			39, 40, 41, 42, 73, 74, 75, 76,
			77, 78, 109, 110, 111, 112, 113, 114,
			145, 146, 147, 148, 149, 150, 181, 182,
			183, 184, 185, 186
		</NodeSet>
		<NodeSet name="FixedDisplacement02">
			1, 2, 3, 4, 5, 6, 7, 8,
			9, 10, 11, 12, 13, 14, 15, 16,
			17, 18, 19, 20, 21, 22, 23, 24,
			25, 26, 27, 28, 29, 30, 31, 32,
			33, 34, 35, 36
		</NodeSet>
		<NodeSet name="FixedDisplacement03">
			1, 7, 13, 19, 25, 31, 37, 43,
			49, 55, 61, 67, 73, 79, 85, 91,
			97, 103, 109, 115, 121, 127, 133, 139,
			145, 151, 157, 163, 169, 175, 181, 187,
			193, 199, 205, 211
		</NodeSet>
		<NodeSet name="PrescribedBC141">
			31, 32, 33, 34, 35, 36, 67, 68,
			69, 70, 71, 72, 103, 104, 105, 106,
			107, 108, 139, 140, 141, 142, 143, 144,
			175, 176, 177, 178, 179, 180, 211, 212,
			213, 214, 215, 216
		</NodeSet>
		<ElementSet name="unnamed_set01">
			73
		</ElementSet>
	</Mesh>
	<MeshDomains>
		<SolidDomain name="Part7" mat="Material1"/>
	</MeshDomains>
	<Boundary>
		<bc name="FixedDisplacement01" node_set="FixedDisplacement01" type="zero displacement">
			<x_dof>0</x_dof>
			<y_dof>1</y_dof>
			<z_dof>0</z_dof>
		</bc>
		<bc name="FixedDisplacement02" node_set="FixedDisplacement02" type="zero displacement">
			<x_dof>1</x_dof>
			<y_dof>0</y_dof>
			<z_dof>0</z_dof>
		</bc>
		<bc name="FixedDisplacement03" node_set="FixedDisplacement03" type="zero displacement">
			<x_dof>0</x_dof>
			<y_dof>0</y_dof>
			<z_dof>1</z_dof>
		</bc>
		<bc name="PrescribedBC141" node_set="PrescribedBC141" type="prescribed displacement">
			<dof>y</dof>
			<value lc="2">1</value>
			<relative>0</relative>
		</bc>
	</Boundary>
	<LoadData>
		<load_controller id="1" name="LC1" type="loadcurve">
			<interpolate>STEP</interpolate>
			<extend>CONSTANT</extend>
			<points>
				<pt>0,0.5</pt>
				<pt>5,0.5</pt>
				<pt>10,0.5</pt>
				<pt>15,0.5</pt>
				<pt>20,0.5</pt>
				<pt>25,0.5</pt>
				<pt>30,0.5</pt>
				<pt>35,0.5</pt>
				<pt>40,0.5</pt>
				<pt>45,0.5</pt>
				<pt>50,0.5</pt>
				<pt>55,0.5</pt>
				<pt>60,0.5</pt>
				<pt>65,0.5</pt>
				<pt>70,0.5</pt>
				<pt>75,0.5</pt>
				<pt>80,0.5</pt>
				<pt>85,0.5</pt>
				<pt>90,0.5</pt>
				<pt>95,0.5</pt>
				<pt>100,0.5</pt>
			</points>
		</load_controller>
		<load_controller id="2" name="LC2" type="loadcurve">
			<interpolate>LINEAR</interpolate>
			<extend>CONSTANT</extend>
			<points>
				<pt>0,0</pt>
				<pt>5,0.03</pt>
				<pt>10,0.015</pt>
				<pt>15,0.03</pt>
				<pt>20,0.015</pt>
				<pt>25,0.03</pt>
				<pt>30,0.015</pt>
				<pt>35,0.03</pt>
				<pt>40,0.015</pt>
				<pt>45,0.03</pt>
				<pt>50,0.015</pt>
				<pt>55,0.03</pt>
				<pt>60,0.015</pt>
				<pt>65,0.03</pt>
				<pt>70,0.015</pt>
				<pt>75,0.03</pt>
				<pt>80,0.015</pt>
				<pt>85,0.03</pt>
				<pt>90,0.015</pt>
				<pt>95,0.03</pt>
				<pt>100,0.015</pt>
			</points>
		</load_controller>
	</LoadData>
	<Output>
		<plotfile type="febio">
			<var type="displacement"/>
			<var type="stress"/>
		</plotfile>
		<logfile>
			<element_data data="s3" elem_set="unnamed_set01"/>
		</logfile>
	</Output>
</febio_spec>
