<?xml version="1.0" encoding="ISO-8859-1"?>
<!--
Biaxial material test of a solid mixture with two EFD distributions. 
Each EFD distribution has an angle of +/ 60 degrees to the material xaxis
-->
<febio_spec version="4.0">
	<Module type="solid"/>
	<Control>
		<analysis>STATIC</analysis>
		<time_steps>20</time_steps>
		<step_size>0.05</step_size>
		<plot_zero_state>0</plot_zero_state>
		<plot_range>0,-1</plot_range>
		<plot_level>PLOT_MAJOR_ITRS</plot_level>
		<output_level>OUTPUT_MAJOR_ITRS</output_level>
		<plot_stride>1</plot_stride>
		<adaptor_re_solve>1</adaptor_re_solve>
		<time_stepper type="default">
			<max_retries>5</max_retries>
			<opt_iter>10</opt_iter>
			<dtmin>0.01</dtmin>
			<dtmax>0.05</dtmax>
			<aggressiveness>0</aggressiveness>
			<cutback>0.5</cutback>
			<dtforce>0</dtforce>
		</time_stepper>
		<solver type="solid">
			<symmetric_stiffness>symmetric</symmetric_stiffness>
			<equation_scheme>staggered</equation_scheme>
			<equation_order>default</equation_order>
			<optimize_bw>0</optimize_bw>
			<lstol>0.9</lstol>
			<lsmin>0.01</lsmin>
			<lsiter>5</lsiter>
			<max_refs>15</max_refs>
			<check_zero_diagonal>0</check_zero_diagonal>
			<zero_diagonal_tol>0</zero_diagonal_tol>
			<force_partition>0</force_partition>
			<reform_each_time_step>1</reform_each_time_step>
			<reform_augment>0</reform_augment>
			<diverge_reform>1</diverge_reform>
			<min_residual>1e-20</min_residual>
			<max_residual>0</max_residual>
			<dtol>0.001</dtol>
			<etol>0.01</etol>
			<rtol>0</rtol>
			<rhoi>0</rhoi>
			<alpha>1</alpha>
			<beta>0.25</beta>
			<gamma>0.5</gamma>
			<logSolve>0</logSolve>
			<arc_length>0</arc_length>
			<arc_length_scale>0</arc_length_scale>
			<qn_method type="BFGS">
				<max_ups>10</max_ups>
				<max_buffer_size>0</max_buffer_size>
				<cycle_buffer>1</cycle_buffer>
				<cmax>100000</cmax>
			</qn_method>
		</solver>
	</Control>
	<Globals>
		<Constants>
			<T>0</T>
			<R>0</R>
			<Fc>0</Fc>
		</Constants>
	</Globals>
	<Material>
		<material id="1" name="Material4" type="solid mixture">
			<density>1</density>
			<solid type="coupled Mooney-Rivlin">
				<density>1</density>
				<c1>0.5</c1>
				<c2>0</c2>
				<k>50</k>
			</solid>
			<solid type="continuous fiber distribution">
				<density>1</density>
				<fibers type="fiber-exp-pow">
					<alpha>51.26</alpha>
					<beta>2</beta>
					<ksi>1</ksi>
					<mu>0</mu>
					<lam0>1</lam0>
				</fibers>
				<distribution type="elliptical">
					<spa1>4</spa1>
					<spa2>1</spa2>
				</distribution>
				<scheme type="fibers-2d-trapezoidal">
					<nth>31</nth>
				</scheme>
				<mat_axis type="angles">
					<theta>60</theta>
					<phi>90</phi>
				</mat_axis>
			</solid>
			<solid type="continuous fiber distribution">
				<density>1</density>
				<fibers type="fiber-exp-pow">
					<alpha>51.16</alpha>
					<beta>2</beta>
					<ksi>1</ksi>
					<mu>0</mu>
					<lam0>1</lam0>
				</fibers>
				<distribution type="elliptical">
					<spa1>4</spa1>
					<spa2>1</spa2>
				</distribution>
				<scheme type="fibers-2d-trapezoidal">
					<nth>31</nth>
				</scheme>
				<mat_axis type="angles">
					<theta>-60</theta>
					<phi>90</phi>
				</mat_axis>
			</solid>
		</material>
	</Material>
	<Mesh>
		<Nodes name="Object1">
			<node id="1">-0.5,-0.5,0</node>
			<node id="2">0.5,-0.5,0</node>
			<node id="3">0.5,0.5,0</node>
			<node id="4">-0.5,0.5,0</node>
			<node id="5">-0.5,-0.5,0.05</node>
			<node id="6">0.5,-0.5,0.05</node>
			<node id="7">0.5,0.5,0.05</node>
			<node id="8">-0.5,0.5,0.05</node>
			<node id="9">-0.484313651,-0.5,0</node>
			<node id="10">-0.468627303,-0.5,0</node>
			<node id="11">-0.451372319,-0.5,0</node>
			<node id="12">-0.434117335,-0.5,0</node>
			<node id="13">-0.415136853,-0.5,0</node>
			<node id="14">-0.396156371,-0.5,0</node>
			<node id="15">-0.375277841,-0.5,0</node>
			<node id="16">-0.354399311,-0.5,0</node>
			<node id="17">-0.331432928,-0.5,0</node>
			<node id="18">-0.308466545,-0.5,0</node>
			<node id="19">-0.283203523,-0.5,0</node>
			<node id="20">-0.257940502,-0.5,0</node>
<!-- ... 8149 like lines cut -->
		</Nodes>
		<Elements type="hex20" name="Part1">
			<elem id="1">1,10,2165,308,99,349,3363,982,9,2223,2167,309,351,3364,3365,985,100,350,3366,983</elem>
			<elem id="2">10,12,2168,2165,349,352,3367,3363,11,2224,2170,2223,354,3368,3369,3364,350,353,3370,3366</elem>
			<elem id="3">12,14,2171,2168,352,355,3371,3367,13,2225,2173,2224,357,3372,3373,3368,353,356,3374,3370</elem>
			<elem id="4">14,16,2174,2171,355,358,3375,3371,15,2226,2176,2225,360,3376,3377,3372,356,359,3378,3374</elem>
			<elem id="5">16,18,2177,2174,358,361,3379,3375,17,2227,2179,2226,363,3380,3381,3376,359,362,3382,3378</elem>
			<elem id="6">18,20,2180,2177,361,364,3383,3379,19,2228,2182,2227,366,3384,3385,3380,362,365,3386,3382</elem>
			<elem id="7">20,22,2183,2180,364,367,3387,3383,21,2229,2185,2228,369,3388,3389,3384,365,368,3390,3386</elem>
			<elem id="8">22,24,2186,2183,367,370,3391,3387,23,2230,2188,2229,372,3392,3393,3388,368,371,3394,3390</elem>
			<elem id="9">24,26,2189,2186,370,373,3395,3391,25,2231,2191,2230,375,3396,3397,3392,371,374,3398,3394</elem>
			<elem id="10">26,28,2192,2189,373,376,3399,3395,27,2232,2194,2231,378,3400,3401,3396,374,377,3402,3398</elem>
			<elem id="11">28,30,2195,2192,376,379,3403,3399,29,2233,2197,2232,381,3404,3405,3400,377,380,3406,3402</elem>
			<elem id="12">30,32,2198,2195,379,382,3407,3403,31,2234,2200,2233,384,3408,3409,3404,380,383,3410,3406</elem>
			<elem id="13">32,34,2201,2198,382,385,3411,3407,33,2235,2203,2234,387,3412,3413,3408,383,386,3414,3410</elem>
			<elem id="14">34,36,2204,2201,385,388,3415,3411,35,2236,2206,2235,390,3416,3417,3412,386,389,3418,3414</elem>
			<elem id="15">36,38,2207,2204,388,391,3419,3415,37,2237,2209,2236,393,3420,3421,3416,389,392,3422,3418</elem>
			<elem id="16">38,40,2210,2207,391,394,3423,3419,39,2238,2212,2237,396,3424,3425,3420,392,395,3426,3422</elem>
			<elem id="17">40,42,2213,2210,394,397,3427,3423,41,2239,2215,2238,399,3428,3429,3424,395,398,3430,3426</elem>
			<elem id="18">42,44,2216,2213,397,400,3431,3427,43,2240,2218,2239,402,3432,3433,3428,398,401,3434,3430</elem>
			<elem id="19">44,46,2219,2216,400,403,3435,3431,45,2241,2221,2240,405,3436,3437,3432,401,404,3438,3434</elem>
			<elem id="20">46,2,102,2219,403,49,542,3435,47,101,2222,2241,406,544,3439,3436,404,48,543,3438</elem>
<!-- ... 1580 like lines cut -->
		</Elements>
		<Surface name="PrescribedDisplacement1">
			<quad8 id="1">2,102,542,49,101,543,544,48</quad8>
			<quad8 id="2">102,104,545,542,103,546,547,543</quad8>
			<quad8 id="3">104,106,548,545,105,549,550,546</quad8>
			<quad8 id="4">106,108,551,548,107,552,553,549</quad8>
			<quad8 id="5">108,110,554,551,109,555,556,552</quad8>
			<quad8 id="6">110,112,557,554,111,558,559,555</quad8>
			<quad8 id="7">112,114,560,557,113,561,562,558</quad8>
			<quad8 id="8">114,116,563,560,115,564,565,561</quad8>
			<quad8 id="9">116,118,566,563,117,567,568,564</quad8>
			<quad8 id="10">118,120,569,566,119,570,571,567</quad8>
			<quad8 id="11">120,122,572,569,121,573,574,570</quad8>
			<quad8 id="12">122,124,575,572,123,576,577,573</quad8>
			<quad8 id="13">124,126,578,575,125,579,580,576</quad8>
			<quad8 id="14">126,128,581,578,127,582,583,579</quad8>
			<quad8 id="15">128,130,584,581,129,585,586,582</quad8>
			<quad8 id="16">130,132,587,584,131,588,589,585</quad8>
			<quad8 id="17">132,134,590,587,133,591,592,588</quad8>
			<quad8 id="18">134,136,593,590,135,594,595,591</quad8>
			<quad8 id="19">136,138,596,593,137,597,598,594</quad8>
			<quad8 id="20">138,3,141,596,139,140,599,597</quad8>
<!-- ... 60 like lines cut -->
		</Surface>
		<Surface name="PrescribedDisplacement2">
			<quad8 id="1">3,187,735,141,186,736,737,140</quad8>
			<quad8 id="2">187,189,738,735,188,739,740,736</quad8>
			<quad8 id="3">189,191,741,738,190,742,743,739</quad8>
			<quad8 id="4">191,193,744,741,192,745,746,742</quad8>
			<quad8 id="5">193,195,747,744,194,748,749,745</quad8>
			<quad8 id="6">195,197,750,747,196,751,752,748</quad8>
			<quad8 id="7">197,199,753,750,198,754,755,751</quad8>
			<quad8 id="8">199,201,756,753,200,757,758,754</quad8>
			<quad8 id="9">201,203,759,756,202,760,761,757</quad8>
			<quad8 id="10">203,205,762,759,204,763,764,760</quad8>
			<quad8 id="11">205,207,765,762,206,766,767,763</quad8>
			<quad8 id="12">207,209,768,765,208,769,770,766</quad8>
			<quad8 id="13">209,211,771,768,210,772,773,769</quad8>
			<quad8 id="14">211,213,774,771,212,775,776,772</quad8>
			<quad8 id="15">213,215,777,774,214,778,779,775</quad8>
			<quad8 id="16">215,217,780,777,216,781,782,778</quad8>
			<quad8 id="17">217,219,783,780,218,784,785,781</quad8>
			<quad8 id="18">219,221,786,783,220,787,788,784</quad8>
			<quad8 id="19">221,223,789,786,222,790,791,787</quad8>
			<quad8 id="20">223,4,226,789,224,225,792,790</quad8>
<!-- ... 60 like lines cut -->
		</Surface>
		<Surface name="PrescribedDisplacement3">
			<quad8 id="1">4,272,928,226,271,929,930,225</quad8>
			<quad8 id="2">272,274,931,928,273,932,933,929</quad8>
			<quad8 id="3">274,276,934,931,275,935,936,932</quad8>
			<quad8 id="4">276,278,937,934,277,938,939,935</quad8>
			<quad8 id="5">278,280,940,937,279,941,942,938</quad8>
			<quad8 id="6">280,282,943,940,281,944,945,941</quad8>
			<quad8 id="7">282,284,946,943,283,947,948,944</quad8>
			<quad8 id="8">284,286,949,946,285,950,951,947</quad8>
			<quad8 id="9">286,288,952,949,287,953,954,950</quad8>
			<quad8 id="10">288,290,955,952,289,956,957,953</quad8>
			<quad8 id="11">290,292,958,955,291,959,960,956</quad8>
			<quad8 id="12">292,294,961,958,293,962,963,959</quad8>
			<quad8 id="13">294,296,964,961,295,965,966,962</quad8>
			<quad8 id="14">296,298,967,964,297,968,969,965</quad8>
			<quad8 id="15">298,300,970,967,299,971,972,968</quad8>
			<quad8 id="16">300,302,973,970,301,974,975,971</quad8>
			<quad8 id="17">302,304,976,973,303,977,978,974</quad8>
			<quad8 id="18">304,306,979,976,305,980,981,977</quad8>
			<quad8 id="19">306,308,982,979,307,983,984,980</quad8>
			<quad8 id="20">308,1,99,982,309,100,985,983</quad8>
<!-- ... 60 like lines cut -->
		</Surface>
		<Surface name="PrescribedDisplacement4">
			<quad8 id="1">1,10,349,99,9,350,351,100</quad8>
			<quad8 id="2">10,12,352,349,11,353,354,350</quad8>
			<quad8 id="3">12,14,355,352,13,356,357,353</quad8>
			<quad8 id="4">14,16,358,355,15,359,360,356</quad8>
			<quad8 id="5">16,18,361,358,17,362,363,359</quad8>
			<quad8 id="6">18,20,364,361,19,365,366,362</quad8>
			<quad8 id="7">20,22,367,364,21,368,369,365</quad8>
			<quad8 id="8">22,24,370,367,23,371,372,368</quad8>
			<quad8 id="9">24,26,373,370,25,374,375,371</quad8>
			<quad8 id="10">26,28,376,373,27,377,378,374</quad8>
			<quad8 id="11">28,30,379,376,29,380,381,377</quad8>
			<quad8 id="12">30,32,382,379,31,383,384,380</quad8>
			<quad8 id="13">32,34,385,382,33,386,387,383</quad8>
			<quad8 id="14">34,36,388,385,35,389,390,386</quad8>
			<quad8 id="15">36,38,391,388,37,392,393,389</quad8>
			<quad8 id="16">38,40,394,391,39,395,396,392</quad8>
			<quad8 id="17">40,42,397,394,41,398,399,395</quad8>
			<quad8 id="18">42,44,400,397,43,401,402,398</quad8>
			<quad8 id="19">44,46,403,400,45,404,405,401</quad8>
			<quad8 id="20">46,2,49,403,47,48,406,404</quad8>
<!-- ... 60 like lines cut -->
		</Surface>
	</Mesh>
	<MeshDomains>
		<SolidDomain name="Part1" mat="Material4"/>
	</MeshDomains>
	<Boundary>
		<bc name="PrescribedDisplacement1" node_set="@surface:PrescribedDisplacement1" type="prescribed displacement">
			<dof>x</dof>
			<value lc="1">0.1</value>
			<relative>0</relative>
		</bc>
		<bc name="PrescribedDisplacement2" node_set="@surface:PrescribedDisplacement2" type="prescribed displacement">
			<dof>y</dof>
			<value lc="2">0.1</value>
			<relative>0</relative>
		</bc>
		<bc name="PrescribedDisplacement3" node_set="@surface:PrescribedDisplacement3" type="prescribed displacement">
			<dof>x</dof>
			<value lc="3">-0.1</value>
			<relative>0</relative>
		</bc>
		<bc name="PrescribedDisplacement4" node_set="@surface:PrescribedDisplacement4" type="prescribed displacement">
			<dof>y</dof>
			<value lc="4">-0.1</value>
			<relative>0</relative>
		</bc>
	</Boundary>
	<LoadData>
		<load_controller id="1" name="LC1" type="loadcurve">
			<interpolate>SMOOTH</interpolate>
			<extend>CONSTANT</extend>
			<points>
				<pt>0,0</pt>
				<pt>1,1</pt>
			</points>
		</load_controller>
		<load_controller id="2" name="LC2" type="loadcurve">
			<interpolate>SMOOTH</interpolate>
			<extend>CONSTANT</extend>
			<points>
				<pt>0,0</pt>
				<pt>1,1</pt>
			</points>
		</load_controller>
		<load_controller id="3" name="LC3" type="loadcurve">
			<interpolate>SMOOTH</interpolate>
			<extend>CONSTANT</extend>
			<points>
				<pt>0,0</pt>
				<pt>1,1</pt>
			</points>
		</load_controller>
		<load_controller id="4" name="LC4" type="loadcurve">
			<interpolate>SMOOTH</interpolate>
			<extend>CONSTANT</extend>
			<points>
				<pt>0,0</pt>
				<pt>1,1</pt>
			</points>
		</load_controller>
	</LoadData>
	<Output>
		<plotfile type="febio">
			<var type="displacement"/>
			<var type="infinitesimal strain"/>
			<var type="relative volume"/>
			<var type="right stretch"/>
			<var type="stress"/>
			<var type="material axes['solid[1]']=Q1"/>
			<var type="material axes['solid[2]']=Q2"/>
		</plotfile>
	</Output>
</febio_spec>
