<?xml version="1.0" encoding="ISO-8859-1"?>
<!--
Crushing of a pipe.  A quartersymmetry, plainstrain model of a 114.3 mm radius pipe
with 8.87 mm thickness.  The rigid body "anvil" is displaced 50 mm in the ydirection.
-->
<febio_spec version="4.0">
	<Module type="solid"/>
	<Control>
		<analysis>STATIC</analysis>
		<time_steps>10</time_steps>
		<step_size>0.1</step_size>
		<plot_zero_state>0</plot_zero_state>
		<plot_range>0,-1</plot_range>
		<plot_level>PLOT_MAJOR_ITRS</plot_level>
		<output_level>OUTPUT_MAJOR_ITRS</output_level>
		<plot_stride>1</plot_stride>
		<adaptor_re_solve>1</adaptor_re_solve>
		<time_stepper type="default">
			<max_retries>5</max_retries>
			<opt_iter>10</opt_iter>
			<dtmin>0.01</dtmin>
			<dtmax>0.1</dtmax>
			<aggressiveness>0</aggressiveness>
			<cutback>0.5</cutback>
			<dtforce>0</dtforce>
		</time_stepper>
		<solver type="solid">
			<symmetric_stiffness>symmetric</symmetric_stiffness>
			<equation_scheme>staggered</equation_scheme>
			<equation_order>default</equation_order>
			<optimize_bw>0</optimize_bw>
			<lstol>0.9</lstol>
			<lsmin>0.01</lsmin>
			<lsiter>5</lsiter>
			<max_refs>15</max_refs>
			<check_zero_diagonal>0</check_zero_diagonal>
			<zero_diagonal_tol>0</zero_diagonal_tol>
			<force_partition>0</force_partition>
			<reform_each_time_step>1</reform_each_time_step>
			<reform_augment>0</reform_augment>
			<diverge_reform>1</diverge_reform>
			<min_residual>1e-20</min_residual>
			<max_residual>0</max_residual>
			<dtol>0.001</dtol>
			<etol>0.01</etol>
			<rtol>0</rtol>
			<rhoi>-2</rhoi>
			<alpha>1</alpha>
			<beta>0.25</beta>
			<gamma>0.5</gamma>
			<logSolve>0</logSolve>
			<arc_length>0</arc_length>
			<arc_length_scale>0</arc_length_scale>
			<qn_method type="BFGS">
				<max_ups>10</max_ups>
				<max_buffer_size>0</max_buffer_size>
				<cycle_buffer>1</cycle_buffer>
				<cmax>100000</cmax>
			</qn_method>
		</solver>
	</Control>
	<Globals>
		<Constants>
			<T>0</T>
			<R>0</R>
			<Fc>0</Fc>
		</Constants>
	</Globals>
	<Material>
		<material id="1" name="Material 1" type="isotropic elastic">
			<density>1</density>
			<E>186000</E>
			<v>0.3</v>
		</material>
		<material id="2" name="Material 2" type="rigid body">
			<density>1</density>
			<E>1</E>
			<v>0</v>
		</material>
	</Material>
	<Mesh>
		<Nodes name="Object01">
			<node id="1">105.43,0,0</node>
			<node id="2">107.6475,0,0</node>
			<node id="3">109.865,0,0</node>
			<node id="4">112.0825,0,0</node>
			<node id="5">114.3,0,0</node>
			<node id="6">105.20427,6.8954518,0</node>
			<node id="7">107.41702,7.0404833,0</node>
			<node id="8">109.62977,7.1855148,0</node>
			<node id="9">111.84253,7.3305463,0</node>
			<node id="10">114.05528,7.4755777,0</node>
			<node id="11">104.52803,13.761376,0</node>
			<node id="12">106.72656,14.050818,0</node>
			<node id="13">108.92509,14.34026,0</node>
			<node id="14">111.12362,14.629702,0</node>
			<node id="15">113.32215,14.919144,0</node>
			<node id="16">103.40419,20.568372,0</node>
			<node id="17">105.57908,21.000985,0</node>
			<node id="18">107.75398,21.433598,0</node>
			<node id="19">109.92887,21.866211,0</node>
			<node id="20">112.10376,22.298824,0</node>
<!-- ... 2636 like lines cut -->
		</Nodes>
		<Elements type="hex8" name="Part21">
			<elem id="1">1,2,7,6,126,127,132,131</elem>
			<elem id="2">2,3,8,7,127,128,133,132</elem>
			<elem id="3">3,4,9,8,128,129,134,133</elem>
			<elem id="4">4,5,10,9,129,130,135,134</elem>
			<elem id="5">6,7,12,11,131,132,137,136</elem>
			<elem id="6">7,8,13,12,132,133,138,137</elem>
			<elem id="7">8,9,14,13,133,134,139,138</elem>
			<elem id="8">9,10,15,14,134,135,140,139</elem>
			<elem id="9">11,12,17,16,136,137,142,141</elem>
			<elem id="10">12,13,18,17,137,138,143,142</elem>
			<elem id="11">13,14,19,18,138,139,144,143</elem>
			<elem id="12">14,15,20,19,139,140,145,144</elem>
			<elem id="13">16,17,22,21,141,142,147,146</elem>
			<elem id="14">17,18,23,22,142,143,148,147</elem>
			<elem id="15">18,19,24,23,143,144,149,148</elem>
			<elem id="16">19,20,25,24,144,145,150,149</elem>
			<elem id="17">21,22,27,26,146,147,152,151</elem>
			<elem id="18">22,23,28,27,147,148,153,152</elem>
			<elem id="19">23,24,29,28,148,149,154,153</elem>
			<elem id="20">24,25,30,29,149,150,155,154</elem>
<!-- ... 76 like lines cut -->
		</Elements>
		<Elements type="hex8" name="Part22">
			<elem id="97">251,257,260,254,252,258,261,255</elem>
			<elem id="98">252,258,261,255,253,259,262,256</elem>
			<elem id="99">257,263,266,260,258,264,267,261</elem>
			<elem id="100">258,264,267,261,259,265,268,262</elem>
			<elem id="101">263,269,272,266,264,270,273,267</elem>
			<elem id="102">264,270,273,267,265,271,274,268</elem>
			<elem id="103">269,275,278,272,270,276,279,273</elem>
			<elem id="104">270,276,279,273,271,277,280,274</elem>
			<elem id="105">275,281,284,278,276,282,285,279</elem>
			<elem id="106">276,282,285,279,277,283,286,280</elem>
			<elem id="107">281,287,290,284,282,288,291,285</elem>
			<elem id="108">282,288,291,285,283,289,292,286</elem>
			<elem id="109">287,293,296,290,288,294,297,291</elem>
			<elem id="110">288,294,297,291,289,295,298,292</elem>
			<elem id="111">293,299,302,296,294,300,303,297</elem>
			<elem id="112">294,300,303,297,295,301,304,298</elem>
			<elem id="113">299,305,308,302,300,306,309,303</elem>
			<elem id="114">300,306,309,303,301,307,310,304</elem>
			<elem id="115">305,311,314,308,306,312,315,309</elem>
			<elem id="116">306,312,315,309,307,313,316,310</elem>
<!-- ... 780 like lines cut -->
		</Elements>
		<NodeSet name="FixedDisplacement01">
			1, 2, 3, 4, 5, 6, 7, 8,
			9, 10, 11, 12, 13, 14, 15, 16,
			17, 18, 19, 20, 21, 22, 23, 24,
			25, 26, 27, 28, 29, 30, 31, 32,
			33, 34, 35, 36, 37, 38, 39, 40,
			41, 42, 43, 44, 45, 46, 47, 48,
			49, 50, 51, 52, 53, 54, 55, 56,
			57, 58, 59, 60, 61, 62, 63, 64,
			65, 66, 67, 68, 69, 70, 71, 72,
			73, 74, 75, 76, 77, 78, 79, 80,
			81, 82, 83, 84, 85, 86, 87, 88,
			89, 90, 91, 92, 93, 94, 95, 96,
			97, 98, 99, 100, 101, 102, 103, 104,
			105, 106, 107, 108, 109, 110, 111, 112,
			113, 114, 115, 116, 117, 118, 119, 120,
			121, 122, 123, 124, 125, 126, 127, 128,
			129, 130, 131, 132, 133, 134, 135, 136,
			137, 138, 139, 140, 141, 142, 143, 144,
			145, 146, 147, 148, 149, 150, 151, 152,
			153, 154, 155, 156, 157, 158, 159, 160,
<!-- ... 12 like lines cut -->
		</NodeSet>
		<NodeSet name="FixedDisplacement02">
			121, 122, 123, 124, 125, 246, 247, 248,
			249, 250
		</NodeSet>
		<NodeSet name="FixedDisplacement03">
			1, 2, 3, 4, 5, 126, 127, 128,
			129, 130
		</NodeSet>
		<Surface name="PrimarySurface01">
			<quad4 id="1">5,10,135,130</quad4>
			<quad4 id="2">10,15,140,135</quad4>
			<quad4 id="3">15,20,145,140</quad4>
			<quad4 id="4">20,25,150,145</quad4>
			<quad4 id="5">25,30,155,150</quad4>
			<quad4 id="6">30,35,160,155</quad4>
			<quad4 id="7">35,40,165,160</quad4>
			<quad4 id="8">40,45,170,165</quad4>
			<quad4 id="9">45,50,175,170</quad4>
			<quad4 id="10">50,55,180,175</quad4>
			<quad4 id="11">55,60,185,180</quad4>
			<quad4 id="12">60,65,190,185</quad4>
			<quad4 id="13">65,70,195,190</quad4>
			<quad4 id="14">70,75,200,195</quad4>
			<quad4 id="15">75,80,205,200</quad4>
			<quad4 id="16">80,85,210,205</quad4>
			<quad4 id="17">85,90,215,210</quad4>
			<quad4 id="18">90,95,220,215</quad4>
			<quad4 id="19">95,100,225,220</quad4>
			<quad4 id="20">100,105,230,225</quad4>
<!-- ... 4 like lines cut -->
		</Surface>
		<Surface name="SecondarySurface01">
			<quad4 id="1">251,257,258,252</quad4>
			<quad4 id="2">252,258,259,253</quad4>
			<quad4 id="3">257,263,264,258</quad4>
			<quad4 id="4">258,264,265,259</quad4>
			<quad4 id="5">263,269,270,264</quad4>
			<quad4 id="6">264,270,271,265</quad4>
			<quad4 id="7">269,275,276,270</quad4>
			<quad4 id="8">270,276,277,271</quad4>
			<quad4 id="9">275,281,282,276</quad4>
			<quad4 id="10">276,282,283,277</quad4>
			<quad4 id="11">281,287,288,282</quad4>
			<quad4 id="12">282,288,289,283</quad4>
			<quad4 id="13">287,293,294,288</quad4>
			<quad4 id="14">288,294,295,289</quad4>
			<quad4 id="15">293,299,300,294</quad4>
			<quad4 id="16">294,300,301,295</quad4>
			<quad4 id="17">299,305,306,300</quad4>
			<quad4 id="18">300,306,307,301</quad4>
			<quad4 id="19">305,311,312,306</quad4>
			<quad4 id="20">306,312,313,307</quad4>
<!-- ... 780 like lines cut -->
		</Surface>
		<SurfacePair name="SlidingInterface01">
			<primary>PrimarySurface01</primary>
			<secondary>SecondarySurface01</secondary>
		</SurfacePair>
	</Mesh>
	<MeshDomains>
		<SolidDomain name="Part21" mat="Material 1"/>
		<SolidDomain name="Part22" mat="Material 2"/>
	</MeshDomains>
	<Boundary>
		<bc name="FixedDisplacement01" node_set="FixedDisplacement01" type="zero displacement">
			<x_dof>0</x_dof>
			<y_dof>0</y_dof>
			<z_dof>1</z_dof>
		</bc>
		<bc name="FixedDisplacement02" node_set="FixedDisplacement02" type="zero displacement">
			<x_dof>1</x_dof>
			<y_dof>0</y_dof>
			<z_dof>0</z_dof>
		</bc>
		<bc name="FixedDisplacement03" node_set="FixedDisplacement03" type="zero displacement">
			<x_dof>0</x_dof>
			<y_dof>1</y_dof>
			<z_dof>0</z_dof>
		</bc>
	</Boundary>
	<Rigid>
		<rigid_bc name="RigidFixed66" type="rigid_fixed">
			<rb>Material 2</rb>
			<Rx_dof>1</Rx_dof>
			<Ry_dof>0</Ry_dof>
			<Rz_dof>1</Rz_dof>
			<Ru_dof>1</Ru_dof>
			<Rv_dof>1</Rv_dof>
			<Rw_dof>1</Rw_dof>
		</rigid_bc>
		<rigid_bc name="RigidDisplacement31" type="rigid_displacement">
			<rb>Material 2</rb>
			<dof>y</dof>
			<value lc="1">1</value>
			<relative>0</relative>
		</rigid_bc>
	</Rigid>
	<Contact>
		<contact name="SlidingInterface01" surface_pair="SlidingInterface01" type="sliding-node-on-facet">
			<laugon>PENALTY</laugon>
			<tolerance>0.01</tolerance>
			<penalty>10000</penalty>
			<auto_penalty>0</auto_penalty>
			<two_pass>0</two_pass>
			<gaptol>0</gaptol>
			<fric_coeff>0</fric_coeff>
			<fric_penalty>0</fric_penalty>
			<minaug>0</minaug>
			<maxaug>10</maxaug>
			<search_tol>0.01</search_tol>
			<ktmult>0</ktmult>
			<knmult>1</knmult>
			<node_reloc>0</node_reloc>
			<seg_up>0</seg_up>
			<search_radius>0</search_radius>
			<update_penalty>0</update_penalty>
		</contact>
	</Contact>
	<LoadData>
		<load_controller id="1" name="LC1" type="loadcurve">
			<interpolate>LINEAR</interpolate>
			<extend>CONSTANT</extend>
			<points>
				<pt>0,0</pt>
				<pt>1,-50</pt>
			</points>
		</load_controller>
	</LoadData>
	<Output>
		<plotfile type="febio">
			<var type="displacement"/>
			<var type="stress"/>
		</plotfile>
	</Output>
</febio_spec>
