<?xml version="1.0" encoding="ISO-8859-1"?>
<!--
This model demonstrates the application of surface force on a cantilever beam.
The force vector is prescribed at one end while the other end is fixed along all
displacement degrees of freedom. The force is distributed as a uniform traction
on the prescribed surface and does not change with the deformation.
-->
<febio_spec version="4.0">
	<Module type="solid"/>
	<Control>
		<analysis>STATIC</analysis>
		<time_steps>10</time_steps>
		<step_size>0.1</step_size>
		<plot_zero_state>0</plot_zero_state>
		<plot_range>0,-1</plot_range>
		<plot_level>PLOT_MAJOR_ITRS</plot_level>
		<output_level>OUTPUT_MAJOR_ITRS</output_level>
		<plot_stride>1</plot_stride>
		<adaptor_re_solve>1</adaptor_re_solve>
		<time_stepper type="default">
			<max_retries>5</max_retries>
			<opt_iter>30</opt_iter>
			<dtmin>0.01</dtmin>
			<dtmax>0.1</dtmax>
			<aggressiveness>0</aggressiveness>
			<cutback>0.5</cutback>
			<dtforce>0</dtforce>
		</time_stepper>
		<solver type="solid">
			<symmetric_stiffness>symmetric</symmetric_stiffness>
			<equation_scheme>staggered</equation_scheme>
			<equation_order>default</equation_order>
			<optimize_bw>0</optimize_bw>
			<lstol>0.9</lstol>
			<lsmin>0.01</lsmin>
			<lsiter>5</lsiter>
			<max_refs>15</max_refs>
			<check_zero_diagonal>0</check_zero_diagonal>
			<zero_diagonal_tol>0</zero_diagonal_tol>
			<force_partition>0</force_partition>
			<reform_each_time_step>1</reform_each_time_step>
			<reform_augment>0</reform_augment>
			<diverge_reform>1</diverge_reform>
			<min_residual>1e-20</min_residual>
			<max_residual>0</max_residual>
			<dtol>0.001</dtol>
			<etol>0.01</etol>
			<rtol>0</rtol>
			<rhoi>0</rhoi>
			<alpha>1</alpha>
			<beta>0.25</beta>
			<gamma>0.5</gamma>
			<logSolve>0</logSolve>
			<arc_length>0</arc_length>
			<arc_length_scale>0</arc_length_scale>
			<qn_method type="BFGS">
				<max_ups>10</max_ups>
				<max_buffer_size>0</max_buffer_size>
				<cycle_buffer>1</cycle_buffer>
				<cmax>100000</cmax>
			</qn_method>
		</solver>
	</Control>
	<Globals>
		<Constants>
			<T>0</T>
			<R>0</R>
			<Fc>0</Fc>
		</Constants>
	</Globals>
	<Material>
		<material id="1" name="Steel" type="neo-Hookean">
			<density>1</density>
			<E>200000</E>
			<v>0.3</v>
		</material>
	</Material>
	<Mesh>
		<Nodes name="Object01">
			<node id="1">-10,-0.5,0</node>
			<node id="2">10,-0.5,0</node>
			<node id="3">10,0.5,0</node>
			<node id="4">-10,0.5,0</node>
			<node id="5">-10,-0.5,1</node>
			<node id="6">10,-0.5,1</node>
			<node id="7">10,0.5,1</node>
			<node id="8">-10,0.5,1</node>
			<node id="9">-9.9,-0.5,0</node>
			<node id="10">-9.8,-0.5,0</node>
			<node id="11">-9.7,-0.5,0</node>
			<node id="12">-9.6,-0.5,0</node>
			<node id="13">-9.5,-0.5,0</node>
			<node id="14">-9.4,-0.5,0</node>
			<node id="15">-9.3,-0.5,0</node>
			<node id="16">-9.2,-0.5,0</node>
			<node id="17">-9.1,-0.5,0</node>
			<node id="18">-9,-0.5,0</node>
			<node id="19">-8.9,-0.5,0</node>
			<node id="20">-8.8,-0.5,0</node>
<!-- ... 24301 like lines cut -->
		</Nodes>
		<Elements type="hex8" name="Part2">
			<elem id="1">1,9,6213,867,424,877,8203,4548</elem>
			<elem id="2">9,10,6214,6213,877,878,8204,8203</elem>
			<elem id="3">10,11,6215,6214,878,879,8205,8204</elem>
			<elem id="4">11,12,6216,6215,879,880,8206,8205</elem>
			<elem id="5">12,13,6217,6216,880,881,8207,8206</elem>
			<elem id="6">13,14,6218,6217,881,882,8208,8207</elem>
			<elem id="7">14,15,6219,6218,882,883,8209,8208</elem>
			<elem id="8">15,16,6220,6219,883,884,8210,8209</elem>
			<elem id="9">16,17,6221,6220,884,885,8211,8210</elem>
			<elem id="10">17,18,6222,6221,885,886,8212,8211</elem>
			<elem id="11">18,19,6223,6222,886,887,8213,8212</elem>
			<elem id="12">19,20,6224,6223,887,888,8214,8213</elem>
			<elem id="13">20,21,6225,6224,888,889,8215,8214</elem>
			<elem id="14">21,22,6226,6225,889,890,8216,8215</elem>
			<elem id="15">22,23,6227,6226,890,891,8217,8216</elem>
			<elem id="16">23,24,6228,6227,891,892,8218,8217</elem>
			<elem id="17">24,25,6229,6228,892,893,8219,8218</elem>
			<elem id="18">25,26,6230,6229,893,894,8220,8219</elem>
			<elem id="19">26,27,6231,6230,894,895,8221,8220</elem>
			<elem id="20">27,28,6232,6231,895,896,8222,8221</elem>
<!-- ... 19980 like lines cut -->
		</Elements>
		<Surface name="FixedDisplacement1">
			<quad4 id="1">4,859,4540,651</quad4>
			<quad4 id="2">859,860,4541,4540</quad4>
			<quad4 id="3">860,861,4542,4541</quad4>
			<quad4 id="4">861,862,4543,4542</quad4>
			<quad4 id="5">862,863,4544,4543</quad4>
			<quad4 id="6">863,864,4545,4544</quad4>
			<quad4 id="7">864,865,4546,4545</quad4>
			<quad4 id="8">865,866,4547,4546</quad4>
			<quad4 id="9">866,867,4548,4547</quad4>
			<quad4 id="10">867,1,424,4548</quad4>
			<quad4 id="11">651,4540,4549,652</quad4>
			<quad4 id="12">4540,4541,4550,4549</quad4>
			<quad4 id="13">4541,4542,4551,4550</quad4>
			<quad4 id="14">4542,4543,4552,4551</quad4>
			<quad4 id="15">4543,4544,4553,4552</quad4>
			<quad4 id="16">4544,4545,4554,4553</quad4>
			<quad4 id="17">4545,4546,4555,4554</quad4>
			<quad4 id="18">4546,4547,4556,4555</quad4>
			<quad4 id="19">4547,4548,4557,4556</quad4>
			<quad4 id="20">4548,424,423,4557</quad4>
<!-- ... 80 like lines cut -->
		</Surface>
		<Surface name="SurfaceForce1">
			<quad4 id="1">2,425,2668,208</quad4>
			<quad4 id="2">425,426,2669,2668</quad4>
			<quad4 id="3">426,427,2670,2669</quad4>
			<quad4 id="4">427,428,2671,2670</quad4>
			<quad4 id="5">428,429,2672,2671</quad4>
			<quad4 id="6">429,430,2673,2672</quad4>
			<quad4 id="7">430,431,2674,2673</quad4>
			<quad4 id="8">431,432,2675,2674</quad4>
			<quad4 id="9">432,433,2676,2675</quad4>
			<quad4 id="10">433,3,434,2676</quad4>
			<quad4 id="11">208,2668,2677,209</quad4>
			<quad4 id="12">2668,2669,2678,2677</quad4>
			<quad4 id="13">2669,2670,2679,2678</quad4>
			<quad4 id="14">2670,2671,2680,2679</quad4>
			<quad4 id="15">2671,2672,2681,2680</quad4>
			<quad4 id="16">2672,2673,2682,2681</quad4>
			<quad4 id="17">2673,2674,2683,2682</quad4>
			<quad4 id="18">2674,2675,2684,2683</quad4>
			<quad4 id="19">2675,2676,2685,2684</quad4>
			<quad4 id="20">2676,434,435,2685</quad4>
<!-- ... 80 like lines cut -->
		</Surface>
	</Mesh>
	<MeshDomains>
		<SolidDomain name="Part2" mat="Steel"/>
	</MeshDomains>
	<Boundary>
		<bc name="FixedDisplacement1" node_set="@surface:FixedDisplacement1" type="zero displacement">
			<x_dof>1</x_dof>
			<y_dof>1</y_dof>
			<z_dof>1</z_dof>
		</bc>
	</Boundary>
	<Loads>
		<surface_load name="SurfaceForce1" surface="SurfaceForce1" type="force">
			<scale lc="1">-10</scale>
			<force>0,1,0</force>
			<shell_bottom>0</shell_bottom>
		</surface_load>
	</Loads>
	<LoadData>
		<load_controller id="1" name="LC1" type="loadcurve">
			<interpolate>SMOOTH</interpolate>
			<extend>CONSTANT</extend>
			<points>
				<pt>0,0</pt>
				<pt>1,1</pt>
			</points>
		</load_controller>
	</LoadData>
	<Output>
		<plotfile type="febio">
			<var type="displacement"/>
			<var type="relative volume"/>
			<var type="stress"/>
		</plotfile>
	</Output>
</febio_spec>
