<?xml version="1.0" encoding="ISO-8859-1"?>
<!--
This model demonstrates the application of a radial bearing load on a shaft, while also 
prescribing fixed normal displacement constraints. The constraints are prescribed at locations
of bearing supports at one end, and at the middle of the shaft, while the bearing load is
prescribed the other end of the shaft.
-->
<febio_spec version="4.0">
	<Module type="solid"/>
	<Control>
		<analysis>STATIC</analysis>
		<time_steps>10</time_steps>
		<step_size>0.1</step_size>
		<plot_zero_state>0</plot_zero_state>
		<plot_range>0,-1</plot_range>
		<plot_level>PLOT_MAJOR_ITRS</plot_level>
		<output_level>OUTPUT_MAJOR_ITRS</output_level>
		<plot_stride>1</plot_stride>
		<adaptor_re_solve>1</adaptor_re_solve>
		<time_stepper type="default">
			<max_retries>5</max_retries>
			<opt_iter>25</opt_iter>
			<dtmin>0.01</dtmin>
			<dtmax>0.1</dtmax>
			<aggressiveness>0</aggressiveness>
			<cutback>0.5</cutback>
			<dtforce>0</dtforce>
		</time_stepper>
		<solver type="solid">
			<symmetric_stiffness>symmetric</symmetric_stiffness>
			<equation_scheme>staggered</equation_scheme>
			<equation_order>default</equation_order>
			<optimize_bw>0</optimize_bw>
			<lstol>0.9</lstol>
			<lsmin>0.01</lsmin>
			<lsiter>5</lsiter>
			<max_refs>15</max_refs>
			<check_zero_diagonal>0</check_zero_diagonal>
			<zero_diagonal_tol>0</zero_diagonal_tol>
			<force_partition>0</force_partition>
			<reform_each_time_step>1</reform_each_time_step>
			<reform_augment>0</reform_augment>
			<diverge_reform>1</diverge_reform>
			<min_residual>1e-20</min_residual>
			<max_residual>0</max_residual>
			<dtol>0.001</dtol>
			<etol>0.01</etol>
			<rtol>0</rtol>
			<rhoi>0</rhoi>
			<alpha>1</alpha>
			<beta>0.25</beta>
			<gamma>0.5</gamma>
			<logSolve>0</logSolve>
			<arc_length>0</arc_length>
			<arc_length_scale>0</arc_length_scale>
			<qn_method type="BFGS">
				<max_ups>10</max_ups>
				<max_buffer_size>0</max_buffer_size>
				<cycle_buffer>1</cycle_buffer>
				<cmax>100000</cmax>
			</qn_method>
		</solver>
	</Control>
	<Globals>
		<Constants>
			<T>0</T>
			<R>0</R>
			<Fc>0</Fc>
		</Constants>
	</Globals>
	<Material>
		<material id="1" name="Steel" type="neo-Hookean">
			<density>1</density>
			<E>200000</E>
			<v>0.3</v>
		</material>
	</Material>
	<Mesh>
		<Nodes name="Object01">
			<node id="1">-1.06066017,-1.06066017,0</node>
			<node id="2">0,-1.06066017,0</node>
			<node id="3">1.06066017,-1.06066017,0</node>
			<node id="4">-1.06066017,0,0</node>
			<node id="5">0,0,0</node>
			<node id="6">1.06066017,0,0</node>
			<node id="7">-1.06066017,1.06066017,0</node>
			<node id="8">0,1.06066017,0</node>
			<node id="9">1.06066017,1.06066017,0</node>
			<node id="10">-1.06066017,-1.06066017,60</node>
			<node id="11">0,-1.06066017,60</node>
			<node id="12">1.06066017,-1.06066017,60</node>
			<node id="13">-1.06066017,0,60</node>
			<node id="14">0,0,60</node>
			<node id="15">1.06066017,0,60</node>
			<node id="16">-1.06066017,1.06066017,60</node>
			<node id="17">0,1.06066017,60</node>
			<node id="18">1.06066017,1.06066017,60</node>
			<node id="19">-2.12132034,-2.12132034,0</node>
			<node id="20">0,-3,0</node>
<!-- ... 33225 like lines cut -->
		</Nodes>
		<Elements type="hex8" name="Part1">
			<elem id="1">1,35,3060,319,166,1366,11770,2611</elem>
			<elem id="2">35,36,3061,3060,1366,1367,11771,11770</elem>
			<elem id="3">36,37,3062,3061,1367,1368,11772,11771</elem>
			<elem id="4">37,38,3063,3062,1368,1369,11773,11772</elem>
			<elem id="5">38,39,3064,3063,1369,1370,11774,11773</elem>
			<elem id="6">39,40,3065,3064,1370,1371,11775,11774</elem>
			<elem id="7">40,41,3066,3065,1371,1372,11776,11775</elem>
			<elem id="8">41,2,167,3066,1372,42,1779,11776</elem>
			<elem id="9">319,3060,3053,318,2611,11770,11777,2610</elem>
			<elem id="10">3060,3061,3054,3053,11770,11771,11778,11777</elem>
			<elem id="11">3061,3062,3055,3054,11771,11772,11779,11778</elem>
			<elem id="12">3062,3063,3056,3055,11772,11773,11780,11779</elem>
			<elem id="13">3063,3064,3057,3056,11773,11774,11781,11780</elem>
			<elem id="14">3064,3065,3058,3057,11774,11775,11782,11781</elem>
			<elem id="15">3065,3066,3059,3058,11775,11776,11783,11782</elem>
			<elem id="16">3066,167,168,3059,11776,1779,1780,11783</elem>
			<elem id="17">318,3053,3046,317,2610,11777,11784,2609</elem>
			<elem id="18">3053,3054,3047,3046,11777,11778,11785,11784</elem>
			<elem id="19">3054,3055,3048,3047,11778,11779,11786,11785</elem>
			<elem id="20">3055,3056,3049,3048,11779,11780,11787,11786</elem>
<!-- ... 30700 like lines cut -->
		</Elements>
		<NodeSet name="FixedDisplacement2">
			28, 32
		</NodeSet>
		<Surface name="FixedDisplacement1">
			<quad4 id="1">319,3060,35,1</quad4>
			<quad4 id="2">3060,3061,36,35</quad4>
			<quad4 id="3">3061,3062,37,36</quad4>
			<quad4 id="4">3062,3063,38,37</quad4>
			<quad4 id="5">3063,3064,39,38</quad4>
			<quad4 id="6">3064,3065,40,39</quad4>
			<quad4 id="7">3065,3066,41,40</quad4>
			<quad4 id="8">3066,167,2,41</quad4>
			<quad4 id="9">318,3053,3060,319</quad4>
			<quad4 id="10">3053,3054,3061,3060</quad4>
			<quad4 id="11">3054,3055,3062,3061</quad4>
			<quad4 id="12">3055,3056,3063,3062</quad4>
			<quad4 id="13">3056,3057,3064,3063</quad4>
			<quad4 id="14">3057,3058,3065,3064</quad4>
			<quad4 id="15">3058,3059,3066,3065</quad4>
			<quad4 id="16">3059,168,167,3066</quad4>
			<quad4 id="17">317,3046,3053,318</quad4>
			<quad4 id="18">3046,3047,3054,3053</quad4>
			<quad4 id="19">3047,3048,3055,3054</quad4>
			<quad4 id="20">3048,3049,3056,3055</quad4>
<!-- ... 492 like lines cut -->
		</Surface>
		<Surface name="BearingLoad1">
			<quad4 id="1">790,7262,7269,791</quad4>
			<quad4 id="2">7262,7263,7270,7269</quad4>
			<quad4 id="3">7263,7264,7271,7270</quad4>
			<quad4 id="4">7264,7265,7272,7271</quad4>
			<quad4 id="5">7265,7266,7273,7272</quad4>
			<quad4 id="6">7266,7267,7274,7273</quad4>
			<quad4 id="7">7267,7268,7275,7274</quad4>
			<quad4 id="8">7268,859,860,7275</quad4>
			<quad4 id="9">791,7269,7276,792</quad4>
			<quad4 id="10">7269,7270,7277,7276</quad4>
			<quad4 id="11">7270,7271,7278,7277</quad4>
			<quad4 id="12">7271,7272,7279,7278</quad4>
			<quad4 id="13">7272,7273,7280,7279</quad4>
			<quad4 id="14">7273,7274,7281,7280</quad4>
			<quad4 id="15">7274,7275,7282,7281</quad4>
			<quad4 id="16">7275,860,861,7282</quad4>
			<quad4 id="17">792,7276,7283,793</quad4>
			<quad4 id="18">7276,7277,7284,7283</quad4>
			<quad4 id="19">7277,7278,7285,7284</quad4>
			<quad4 id="20">7278,7279,7286,7285</quad4>
<!-- ... 364 like lines cut -->
		</Surface>
		<Surface name="FixedNormalDisplacement1">
			<quad4 id="1">19,799,6891,737</quad4>
			<quad4 id="2">799,800,6892,6891</quad4>
			<quad4 id="3">800,801,6893,6892</quad4>
			<quad4 id="4">801,802,6894,6893</quad4>
			<quad4 id="5">802,803,6895,6894</quad4>
			<quad4 id="6">803,804,6896,6895</quad4>
			<quad4 id="7">804,805,6897,6896</quad4>
			<quad4 id="8">805,20,806,6897</quad4>
			<quad4 id="9">737,6891,6898,738</quad4>
			<quad4 id="10">6891,6892,6899,6898</quad4>
			<quad4 id="11">6892,6893,6900,6899</quad4>
			<quad4 id="12">6893,6894,6901,6900</quad4>
			<quad4 id="13">6894,6895,6902,6901</quad4>
			<quad4 id="14">6895,6896,6903,6902</quad4>
			<quad4 id="15">6896,6897,6904,6903</quad4>
			<quad4 id="16">6897,806,807,6904</quad4>
			<quad4 id="17">738,6898,6905,739</quad4>
			<quad4 id="18">6898,6899,6906,6905</quad4>
			<quad4 id="19">6899,6900,6907,6906</quad4>
			<quad4 id="20">6900,6901,6908,6907</quad4>
<!-- ... 364 like lines cut -->
		</Surface>
		<Surface name="FixedNormalDisplacement2">
			<quad4 id="1">763,7073,7080,764</quad4>
			<quad4 id="2">7073,7074,7081,7080</quad4>
			<quad4 id="3">7074,7075,7082,7081</quad4>
			<quad4 id="4">7075,7076,7083,7082</quad4>
			<quad4 id="5">7076,7077,7084,7083</quad4>
			<quad4 id="6">7077,7078,7085,7084</quad4>
			<quad4 id="7">764,7080,7087,765</quad4>
			<quad4 id="8">7080,7081,7088,7087</quad4>
			<quad4 id="9">7081,7082,7089,7088</quad4>
			<quad4 id="10">7082,7083,7090,7089</quad4>
			<quad4 id="11">7083,7084,7091,7090</quad4>
			<quad4 id="12">7084,7085,7092,7091</quad4>
			<quad4 id="13">765,7087,7094,766</quad4>
			<quad4 id="14">7087,7088,7095,7094</quad4>
			<quad4 id="15">7088,7089,7096,7095</quad4>
			<quad4 id="16">7089,7090,7097,7096</quad4>
			<quad4 id="17">7090,7091,7098,7097</quad4>
			<quad4 id="18">7091,7092,7099,7098</quad4>
			<quad4 id="19">766,7094,7101,767</quad4>
			<quad4 id="20">7094,7095,7102,7101</quad4>
<!-- ... 340 like lines cut -->
		</Surface>
	</Mesh>
	<MeshDomains>
		<SolidDomain name="Part1" mat="Steel"/>
	</MeshDomains>
	<Boundary>
		<bc name="FixedDisplacement1" node_set="@surface:FixedDisplacement1" type="zero displacement">
			<x_dof>0</x_dof>
			<y_dof>0</y_dof>
			<z_dof>1</z_dof>
		</bc>
		<bc name="FixedDisplacement2" node_set="FixedDisplacement2" type="zero displacement">
			<x_dof>1</x_dof>
			<y_dof>0</y_dof>
			<z_dof>0</z_dof>
		</bc>
	</Boundary>
	<Loads>
		<surface_load name="BearingLoad1" surface="BearingLoad1" type="bearing load">
			<scale lc="1">20</scale>
			<force>0,-1,0</force>
			<symmetric_stiffness>0</symmetric_stiffness>
			<linear>0</linear>
			<shell_bottom>0</shell_bottom>
			<profile>1</profile>
		</surface_load>
	</Loads>
	<Constraints>
		<constraint name="FixedNormalDisplacement1" surface="FixedNormalDisplacement1" type="fixed normal displacement">
			<laugon>1</laugon>
			<tol>0.01</tol>
			<penalty>10000</penalty>
			<rhs>0</rhs>
			<minaug>0</minaug>
			<maxaug>10</maxaug>
			<shell_bottom>0</shell_bottom>
		</constraint>
		<constraint name="FixedNormalDisplacement2" surface="FixedNormalDisplacement2" type="fixed normal displacement">
			<laugon>1</laugon>
			<tol>0.01</tol>
			<penalty>10000</penalty>
			<rhs>0</rhs>
			<minaug>0</minaug>
			<maxaug>10</maxaug>
			<shell_bottom>0</shell_bottom>
		</constraint>
	</Constraints>
	<LoadData>
		<load_controller id="1" name="LC1" type="loadcurve">
			<interpolate>SMOOTH</interpolate>
			<extend>CONSTANT</extend>
			<points>
				<pt>0,0</pt>
				<pt>1,1</pt>
			</points>
		</load_controller>
	</LoadData>
	<Output>
		<plotfile type="febio">
			<var type="displacement"/>
			<var type="reaction forces"/>
			<var type="relative volume"/>
			<var type="stress"/>
		</plotfile>
	</Output>
</febio_spec>
