<?xml version="1.0" encoding="ISO-8859-1"?>
<!--
This model demonstrates the application of a radial bearing load on a cylindrical bearing surface,
while also prescribing a fixed normal displacement constraint on the outer circular face of the tube.
The bearing load is oriented in the xy plane, at 45 degrees to the xdirection. 
The mesh consists of tet10 elements.
-->
<febio_spec version="4.0">
	<Module type="solid"/>
	<Control>
		<analysis>STATIC</analysis>
		<time_steps>1</time_steps>
		<step_size>1</step_size>
		<plot_zero_state>0</plot_zero_state>
		<plot_range>0,-1</plot_range>
		<plot_level>PLOT_MAJOR_ITRS</plot_level>
		<output_level>OUTPUT_MAJOR_ITRS</output_level>
		<plot_stride>1</plot_stride>
		<adaptor_re_solve>1</adaptor_re_solve>
		<solver type="solid">
			<symmetric_stiffness>non-symmetric</symmetric_stiffness>
			<equation_scheme>staggered</equation_scheme>
			<equation_order>default</equation_order>
			<optimize_bw>0</optimize_bw>
			<lstol>0.9</lstol>
			<lsmin>0.01</lsmin>
			<lsiter>5</lsiter>
			<max_refs>15</max_refs>
			<check_zero_diagonal>0</check_zero_diagonal>
			<zero_diagonal_tol>0</zero_diagonal_tol>
			<force_partition>0</force_partition>
			<reform_each_time_step>1</reform_each_time_step>
			<reform_augment>0</reform_augment>
			<diverge_reform>1</diverge_reform>
			<min_residual>1e-20</min_residual>
			<max_residual>0</max_residual>
			<dtol>0.001</dtol>
			<etol>0.01</etol>
			<rtol>0</rtol>
			<rhoi>0</rhoi>
			<alpha>1</alpha>
			<beta>0.25</beta>
			<gamma>0.5</gamma>
			<logSolve>0</logSolve>
			<arc_length>0</arc_length>
			<arc_length_scale>0</arc_length_scale>
			<qn_method type="Broyden">
				<max_ups>10</max_ups>
				<max_buffer_size>0</max_buffer_size>
				<cycle_buffer>1</cycle_buffer>
				<cmax>100000</cmax>
			</qn_method>
		</solver>
	</Control>
	<Globals>
		<Constants>
			<T>0</T>
			<R>0</R>
			<Fc>0</Fc>
		</Constants>
	</Globals>
	<Material>
		<material id="1" name="Steel" type="neo-Hookean">
			<density>1</density>
			<E>200000</E>
			<v>0.3</v>
		</material>
	</Material>
	<Mesh>
		<Nodes name="Object1">
			<node id="1">3,0,0</node>
			<node id="2">18,0,0</node>
			<node id="3">0,3,0</node>
			<node id="4">0,18,0</node>
			<node id="5">-3,0,0</node>
			<node id="6">-18,0,0</node>
			<node id="7">0,-3,0</node>
			<node id="8">0,-18,0</node>
			<node id="9">3,0,10</node>
			<node id="10">18,0,10</node>
			<node id="11">0,3,10</node>
			<node id="12">0,18,10</node>
			<node id="13">-3,0,10</node>
			<node id="14">-18,0,10</node>
			<node id="15">0,-3,10</node>
			<node id="16">0,-18,10</node>
			<node id="17">3.06865862,0,0</node>
			<node id="18">3.15791483,0,0</node>
			<node id="19">3.27394789,0,0</node>
			<node id="20">3.42479088,0,0</node>
<!-- ... 35884 like lines cut -->
		</Nodes>
		<Elements type="tet10" name="Part1">
			<elem id="1">1,17,1957,305,4897,5073,4898,4899,5074,7633</elem>
			<elem id="2">1,1957,17,703,4898,5073,4897,4900,10869,5075</elem>
			<elem id="3">1,305,1957,60,4899,7633,4898,4901,5528,5529</elem>
			<elem id="4">1,1957,570,60,4898,10016,4902,4901,5529,5530</elem>
			<elem id="5">1,1957,703,125,4898,10869,4900,4903,6125,6126</elem>
			<elem id="6">1,1957,125,570,4898,6125,4903,4902,10016,6127</elem>
			<elem id="7">17,18,1958,306,5076,5084,5077,5078,5085,7644</elem>
			<elem id="8">17,1958,18,704,5077,5084,5076,5079,10872,5086</elem>
			<elem id="9">17,306,1958,305,5078,7644,5077,5074,7634,7635</elem>
			<elem id="10">17,1958,1957,305,5077,19241,5073,5074,7635,7633</elem>
			<elem id="11">17,1958,704,703,5077,10872,5079,5075,10870,10871</elem>
			<elem id="12">17,1958,703,1957,5077,10870,5075,5073,19241,10869</elem>
			<elem id="13">18,19,1959,307,5087,5095,5088,5089,5096,7655</elem>
			<elem id="14">18,1959,19,705,5088,5095,5087,5090,10875,5097</elem>
			<elem id="15">18,307,1959,306,5089,7655,5088,5085,7645,7646</elem>
			<elem id="16">18,1959,1958,306,5088,19248,5084,5085,7646,7644</elem>
			<elem id="17">18,1959,705,704,5088,10875,5090,5086,10873,10874</elem>
			<elem id="18">18,1959,704,1958,5088,10873,5086,5084,19248,10872</elem>
			<elem id="19">19,20,1960,308,5098,5106,5099,5100,5107,7666</elem>
			<elem id="20">19,1960,20,706,5099,5106,5098,5101,10878,5108</elem>
<!-- ... 24556 like lines cut -->
		</Elements>
		<Surface name="FixedDisplacement1">
			<tri6 id="1">3,96,613,4925,5849,4922</tri6>
			<tri6 id="2">613,119,3,6089,4919,4922</tri6>
			<tri6 id="3">95,614,613,5837,10268,5839</tri6>
			<tri6 id="4">613,96,95,5849,5843,5839</tri6>
			<tri6 id="5">94,615,614,5826,10275,5828</tri6>
			<tri6 id="6">614,95,94,5837,5832,5828</tri6>
			<tri6 id="7">93,616,615,5815,10282,5817</tri6>
			<tri6 id="8">615,94,93,5826,5821,5817</tri6>
			<tri6 id="9">92,617,616,5804,10289,5806</tri6>
			<tri6 id="10">616,93,92,5815,5810,5806</tri6>
			<tri6 id="11">91,618,617,5793,10296,5795</tri6>
			<tri6 id="12">617,92,91,5804,5799,5795</tri6>
			<tri6 id="13">90,619,618,5782,10303,5784</tri6>
			<tri6 id="14">618,91,90,5793,5788,5784</tri6>
			<tri6 id="15">89,620,619,5771,10310,5773</tri6>
			<tri6 id="16">619,90,89,5782,5777,5773</tri6>
			<tri6 id="17">88,621,620,5760,10317,5762</tri6>
			<tri6 id="18">620,89,88,5771,5766,5762</tri6>
			<tri6 id="19">87,622,621,5749,10324,5751</tri6>
			<tri6 id="20">621,88,87,5760,5755,5751</tri6>
<!-- ... 1004 like lines cut -->
		</Surface>
		<Surface name="BearingLoad1">
			<tri6 id="1">3,119,564,4919,6087,4921</tri6>
			<tri6 id="2">564,97,3,5853,4923,4921</tri6>
			<tri6 id="3">119,120,565,6083,6094,6085</tri6>
			<tri6 id="4">565,564,119,9974,6087,6085</tri6>
			<tri6 id="5">120,121,566,6090,6101,6092</tri6>
			<tri6 id="6">566,565,120,9981,6094,6092</tri6>
			<tri6 id="7">121,122,567,6097,6108,6099</tri6>
			<tri6 id="8">567,566,121,9988,6101,6099</tri6>
			<tri6 id="9">122,123,568,6104,6115,6106</tri6>
			<tri6 id="10">568,567,122,9995,6108,6106</tri6>
			<tri6 id="11">123,124,569,6111,6122,6113</tri6>
			<tri6 id="12">569,568,123,10002,6115,6113</tri6>
			<tri6 id="13">124,125,570,6118,6127,6120</tri6>
			<tri6 id="14">570,569,124,10009,6122,6120</tri6>
			<tri6 id="15">1,60,570,4901,5530,4902</tri6>
			<tri6 id="16">570,125,1,6127,4903,4902</tri6>
			<tri6 id="17">97,564,571,5853,9980,5857</tri6>
			<tri6 id="18">571,98,97,5864,5858,5857</tri6>
			<tri6 id="19">564,565,572,9974,9987,9978</tri6>
			<tri6 id="20">572,571,564,10019,9980,9978</tri6>
<!-- ... 492 like lines cut -->
		</Surface>
		<Surface name="FixedNormalDisplacement1">
			<tri6 id="1">2,61,410,4912,5535,4913</tri6>
			<tri6 id="2">410,32,2,5234,4914,4913</tri6>
			<tri6 id="3">61,62,411,5539,5541,5538</tri6>
			<tri6 id="4">411,410,61,8661,5535,5538</tri6>
			<tri6 id="5">62,63,412,5546,5548,5545</tri6>
			<tri6 id="6">412,411,62,8668,5541,5545</tri6>
			<tri6 id="7">63,64,413,5553,5555,5552</tri6>
			<tri6 id="8">413,412,63,8675,5548,5552</tri6>
			<tri6 id="9">64,65,414,5560,5562,5559</tri6>
			<tri6 id="10">414,413,64,8682,5555,5559</tri6>
			<tri6 id="11">65,66,415,5567,5569,5566</tri6>
			<tri6 id="12">415,414,65,8689,5562,5566</tri6>
			<tri6 id="13">66,67,416,5574,5576,5573</tri6>
			<tri6 id="14">416,415,66,8696,5569,5573</tri6>
			<tri6 id="15">4,68,416,4936,5579,4933</tri6>
			<tri6 id="16">416,67,4,5576,4930,4933</tri6>
			<tri6 id="17">32,410,417,5234,8663,5237</tri6>
			<tri6 id="18">417,33,32,5245,5238,5237</tri6>
			<tri6 id="19">410,411,418,8661,8670,8665</tri6>
			<tri6 id="20">418,417,410,8706,8663,8665</tri6>
<!-- ... 492 like lines cut -->
		</Surface>
	</Mesh>
	<MeshDomains>
		<SolidDomain name="Part1" mat="Steel"/>
	</MeshDomains>
	<Boundary>
		<bc name="FixedDisplacement1" node_set="@surface:FixedDisplacement1" type="zero displacement">
			<x_dof>0</x_dof>
			<y_dof>0</y_dof>
			<z_dof>1</z_dof>
		</bc>
	</Boundary>
	<Loads>
		<surface_load name="BearingLoad1" surface="BearingLoad1" type="bearing load">
			<scale lc="1">1000</scale>
			<force>0.707107,0.707107,0</force>
			<symmetric_stiffness>0</symmetric_stiffness>
			<linear>0</linear>
			<shell_bottom>0</shell_bottom>
			<profile>1</profile>
		</surface_load>
	</Loads>
	<Constraints>
		<constraint name="FixedNormalDisplacement1" surface="FixedNormalDisplacement1" type="fixed normal displacement">
			<laugon>AUGLAG</laugon>
			<tol>0.05</tol>
			<penalty>10000</penalty>
			<rhs>0</rhs>
			<minaug>0</minaug>
			<maxaug>10</maxaug>
			<shell_bottom>0</shell_bottom>
		</constraint>
	</Constraints>
	<LoadData>
		<load_controller id="1" name="LC1" type="loadcurve">
			<interpolate>SMOOTH</interpolate>
			<extend>CONSTANT</extend>
			<points>
				<pt>0,0</pt>
				<pt>1,1</pt>
			</points>
		</load_controller>
	</LoadData>
	<Output>
		<plotfile type="febio">
			<var type="displacement"/>
			<var type="reaction forces"/>
			<var type="relative volume"/>
			<var type="stress"/>
		</plotfile>
	</Output>
</febio_spec>
