<?xml version="1.0" encoding="ISO-8859-1"?>
<!-- example of a model that uses a moving frame load -->
<febio_spec version="4.0">
	<Module type="solid">
		<units>SI</units>
	</Module>
	<Control>
		<analysis>DYNAMIC</analysis>
		<time_steps>100</time_steps>
		<step_size>0.02</step_size>
		<plot_zero_state>0</plot_zero_state>
		<plot_range>0,-1</plot_range>
		<plot_level>PLOT_MAJOR_ITRS</plot_level>
		<output_level>OUTPUT_MAJOR_ITRS</output_level>
		<plot_stride>1</plot_stride>
		<output_stride>1</output_stride>
		<adaptor_re_solve>1</adaptor_re_solve>
		<solver type="solid">
			<symmetric_stiffness>symmetric</symmetric_stiffness>
			<equation_scheme>staggered</equation_scheme>
			<equation_order>default</equation_order>
			<optimize_bw>0</optimize_bw>
			<lstol>0.9</lstol>
			<lsmin>0.01</lsmin>
			<lsiter>5</lsiter>
			<max_refs>15</max_refs>
			<check_zero_diagonal>0</check_zero_diagonal>
			<zero_diagonal_tol>0</zero_diagonal_tol>
			<force_partition>0</force_partition>
			<reform_each_time_step>1</reform_each_time_step>
			<reform_augment>0</reform_augment>
			<diverge_reform>1</diverge_reform>
			<min_residual>1e-20</min_residual>
			<max_residual>0</max_residual>
			<dtol>0.001</dtol>
			<etol>0.01</etol>
			<rtol>0</rtol>
			<rhoi>1</rhoi>
			<!-- <rhoi>-2</rhoi> -->
			<alpha>1</alpha>
			<beta>0.25</beta>
			<gamma>0.5</gamma>
			<logSolve>0</logSolve>
			<arc_length>0</arc_length>
			<arc_length_scale>0</arc_length_scale>
			<qn_method type="BFGS">
				<max_ups>10</max_ups>
				<max_buffer_size>0</max_buffer_size>
				<cycle_buffer>1</cycle_buffer>
				<cmax>100000</cmax>
			</qn_method>
		</solver>
	</Control>
	<Globals>
		<Constants>
			<T>0</T>
			<P>0</P>
			<R>8.31446</R>
			<Fc>96485.3</Fc>
		</Constants>
	</Globals>
	<Material>
		<material id="1" name="Material1" type="rigid body">
			<density>1</density>
			<E>1</E>
			<v>0</v>
		</material>
		<material id="2" name="Material2" type="neo-Hookean">
			<density>0.1</density>
			<E>1</E>
			<!-- <E>10</E> -->
			<v>0.3</v>
		</material>
	</Material>
	<Mesh>
		<Nodes name="Object2">
			<node id="1">-0.5,-0.5,0</node>
			<node id="2">0.5,-0.5,0</node>
			<node id="3">0.5,0.5,0</node>
			<node id="4">-0.5,0.5,0</node>
			<node id="5">-0.5,-0.5,1</node>
			<node id="6">0.5,-0.5,1</node>
			<node id="7">0.5,0.5,1</node>
			<node id="8">-0.5,0.5,1</node>
			<node id="9">-0.409090909,-0.5,0</node>
			<node id="10">-0.318181818,-0.5,0</node>
			<node id="11">-0.227272727,-0.5,0</node>
			<node id="12">-0.136363636,-0.5,0</node>
			<node id="13">-0.0454545455,-0.5,0</node>
			<node id="14">0.0454545455,-0.5,0</node>
			<node id="15">0.136363636,-0.5,0</node>
			<node id="16">0.227272727,-0.5,0</node>
			<node id="17">0.318181818,-0.5,0</node>
			<node id="18">0.409090909,-0.5,0</node>
			<node id="19">0.5,-0.5,0.0909090909</node>
			<node id="20">0.5,-0.5,0.181818182</node>
<!-- ... 1708 like lines cut -->
		</Nodes>
		<Elements type="hex8" name="Part2">
			<elem id="1">1,9,619,118,48,129,729,438</elem>
			<elem id="2">9,10,620,619,129,130,730,729</elem>
			<elem id="3">10,11,621,620,130,131,731,730</elem>
			<elem id="4">11,12,622,621,131,132,732,731</elem>
			<elem id="5">12,13,623,622,132,133,733,732</elem>
			<elem id="6">13,14,624,623,133,134,734,733</elem>
			<elem id="7">14,15,625,624,134,135,735,734</elem>
			<elem id="8">15,16,626,625,135,136,736,735</elem>
			<elem id="9">16,17,627,626,136,137,737,736</elem>
			<elem id="10">17,18,628,627,137,138,738,737</elem>
			<elem id="11">18,2,49,628,138,19,229,738</elem>
			<elem id="12">118,619,609,117,438,729,739,437</elem>
			<elem id="13">619,620,610,609,729,730,740,739</elem>
			<elem id="14">620,621,611,610,730,731,741,740</elem>
			<elem id="15">621,622,612,611,731,732,742,741</elem>
			<elem id="16">622,623,613,612,732,733,743,742</elem>
			<elem id="17">623,624,614,613,733,734,744,743</elem>
			<elem id="18">624,625,615,614,734,735,745,744</elem>
			<elem id="19">625,626,616,615,735,736,746,745</elem>
			<elem id="20">626,627,617,616,736,737,747,746</elem>
<!-- ... 1300 like lines cut -->
		</Elements>
		<Elements type="hex8" name="Part9">
			<elem id="61">583,584,574,573,773,774,784,783</elem>
			<elem id="182">773,774,784,783,873,874,884,883</elem>
			<elem id="303">873,874,884,883,973,974,984,983</elem>
			<elem id="424">973,974,984,983,1073,1074,1084,1083</elem>
			<elem id="545">1073,1074,1084,1083,1173,1174,1184,1183</elem>
			<elem id="666">1173,1174,1184,1183,1273,1274,1284,1283</elem>
			<elem id="787">1273,1274,1284,1283,1373,1374,1384,1383</elem>
			<elem id="908">1373,1374,1384,1383,1473,1474,1484,1483</elem>
			<elem id="1029">1473,1474,1484,1483,1573,1574,1584,1583</elem>
			<elem id="1150">1573,1574,1584,1583,1673,1674,1684,1683</elem>
			<elem id="1271">1673,1674,1684,1683,673,674,684,683</elem>
		</Elements>
	</Mesh>
	<MeshDomains>
		<SolidDomain name="Part2" mat="Material2"/>
		<SolidDomain name="Part9" mat="Material1"/>
	</MeshDomains>
	<Rigid>
		<rigid_bc name="RigidConstraint1" type="rigid_fixed">
			<rb>Material1</rb>
			<Rx_dof>1</Rx_dof>
			<Ry_dof>1</Ry_dof>
			<Rz_dof>1</Rz_dof>
			<Ru_dof>1</Ru_dof>
			<Rv_dof>1</Rv_dof>
			<Rw_dof>1</Rw_dof>
		</rigid_bc>
	</Rigid>
	<Loads>
		<body_load type="moving frame">
			<wx>0</wx>
			<wy>0</wy>
			<wz lc="1">1</wz>
			<ax>0</ax>
			<ay>0</ay>
			<az>0</az>
		</body_load>
	</Loads>
	<LoadData>
		<load_controller id="1" name="LC1" type="math">
			<math>2*t</math>
		</load_controller>
	</LoadData>
	<Output>
		<plotfile type="febio">
			<var type="displacement"/>
			<var type="stress"/>
			<var type="relative volume"/>
		</plotfile>
	</Output>
</febio_spec>
