<?xml version="1.0" encoding="ISO-8859-1"?>
<!--
Confined compression stressrelaxation of multiphasic material with NaCl, whose solid
matrix consists of a neoHookean material.  A twostep analysis is performed, where the
first step (from 0 to 1 s) is a steadystate analysis needed to produce equilibrium
free swelling by raising the fixed charged density from zero to the final desired value.
The second step (from 1 to 2001 s) is a transient analysis where the compressive 
displacement prescribed on the top surface is relative to the freeswelling state.
-->
<febio_spec version="4.0">
	<Module type="multiphasic"/>
	<Globals>
		<Constants>
			<T>293</T>
			<R>8.314e-06</R>
			<Fc>9.6845e-05</Fc>
		</Constants>
		<Solutes>
			<solute id="1" name="Na">
				<charge_number>1</charge_number>
				<molar_mass>1</molar_mass>
				<density>1</density>
			</solute>
			<solute id="2" name="Cl">
				<charge_number>-1</charge_number>
				<molar_mass>1</molar_mass>
				<density>1</density>
			</solute>
		</Solutes>
	</Globals>
	<Material>
		<material id="1" name="Triphasic" type="multiphasic">
			<phi0>0.2</phi0>
			<fluid_density>0</fluid_density>
			<penalty>1</penalty>
			<fixed_charge_density lc="3">1</fixed_charge_density>
			<solid type="neo-Hookean">
				<density>1</density>
				<E>0.3</E>
				<v>0</v>
			</solid>
			<permeability type="perm-const-iso">
				<perm>0.000914</perm>
			</permeability>
			<osmotic_coefficient type="osm-coef-const">
				<osmcoef>1</osmcoef>
			</osmotic_coefficient>
			<solute sol="Na">
				<diffusivity type="diff-const-iso">
					<free_diff>0.0005</free_diff>
					<diff>0.0005</diff>
				</diffusivity>
				<solubility type="solub-const">
					<solub>1</solub>
				</solubility>
			</solute>
			<solute sol="Cl">
				<diffusivity type="diff-const-iso">
					<free_diff>0.0008</free_diff>
					<diff>0.0008</diff>
				</diffusivity>
				<solubility type="solub-const">
					<solub>1</solub>
				</solubility>
			</solute>
		</material>
	</Material>
	<Mesh>
		<Nodes name="Object01">
			<node id="1">-0.5,-0.5,0</node>
			<node id="2">-0.5,-0.5,0.0026782653</node>
			<node id="3">-0.5,-0.5,0.0058921838</node>
			<node id="4">-0.5,-0.5,0.0097488859</node>
			<node id="5">-0.5,-0.5,0.014376928</node>
			<node id="6">-0.5,-0.5,0.019930579</node>
			<node id="7">-0.5,-0.5,0.026594961</node>
			<node id="8">-0.5,-0.5,0.034592218</node>
			<node id="9">-0.5,-0.5,0.044188927</node>
			<node id="10">-0.5,-0.5,0.055704978</node>
			<node id="11">-0.5,-0.5,0.069524239</node>
			<node id="12">-0.5,-0.5,0.086107352</node>
			<node id="13">-0.5,-0.5,0.10600709</node>
			<node id="14">-0.5,-0.5,0.12988677</node>
			<node id="15">-0.5,-0.5,0.15854239</node>
			<node id="16">-0.5,-0.5,0.19292913</node>
			<node id="17">-0.5,-0.5,0.23419323</node>
			<node id="18">-0.5,-0.5,0.28371014</node>
			<node id="19">-0.5,-0.5,0.34313043</node>
			<node id="20">-0.5,-0.5,0.41443478</node>
<!-- ... 144 like lines cut -->
		</Nodes>
		<Elements type="hex8" name="Part1">
			<elem id="1">1,83,124,42,2,84,125,43</elem>
			<elem id="2">2,84,125,43,3,85,126,44</elem>
			<elem id="3">3,85,126,44,4,86,127,45</elem>
			<elem id="4">4,86,127,45,5,87,128,46</elem>
			<elem id="5">5,87,128,46,6,88,129,47</elem>
			<elem id="6">6,88,129,47,7,89,130,48</elem>
			<elem id="7">7,89,130,48,8,90,131,49</elem>
			<elem id="8">8,90,131,49,9,91,132,50</elem>
			<elem id="9">9,91,132,50,10,92,133,51</elem>
			<elem id="10">10,92,133,51,11,93,134,52</elem>
			<elem id="11">11,93,134,52,12,94,135,53</elem>
			<elem id="12">12,94,135,53,13,95,136,54</elem>
			<elem id="13">13,95,136,54,14,96,137,55</elem>
			<elem id="14">14,96,137,55,15,97,138,56</elem>
			<elem id="15">15,97,138,56,16,98,139,57</elem>
			<elem id="16">16,98,139,57,17,99,140,58</elem>
			<elem id="17">17,99,140,58,18,100,141,59</elem>
			<elem id="18">18,100,141,59,19,101,142,60</elem>
			<elem id="19">19,101,142,60,20,102,143,61</elem>
			<elem id="20">20,102,143,61,21,103,144,62</elem>
<!-- ... 20 like lines cut -->
		</Elements>
		<NodeSet name="FixedDisplacement01">
			1, 2, 3, 4, 5, 6, 7, 8,
			9, 10, 11, 12, 13, 14, 15, 16,
			17, 18, 19, 20, 21, 22, 23, 24,
			25, 26, 27, 28, 29, 30, 31, 32,
			33, 34, 35, 36, 37, 38, 39, 40,
			41, 42, 43, 44, 45, 46, 47, 48,
			49, 50, 51, 52, 53, 54, 55, 56,
			57, 58, 59, 60, 61, 62, 63, 64,
			65, 66, 67, 68, 69, 70, 71, 72,
			73, 74, 75, 76, 77, 78, 79, 80,
			81, 82, 83, 84, 85, 86, 87, 88,
			89, 90, 91, 92, 93, 94, 95, 96,
			97, 98, 99, 100, 101, 102, 103, 104,
			105, 106, 107, 108, 109, 110, 111, 112,
			113, 114, 115, 116, 117, 118, 119, 120,
			121, 122, 123, 124, 125, 126, 127, 128,
			129, 130, 131, 132, 133, 134, 135, 136,
			137, 138, 139, 140, 141, 142, 143, 144,
			145, 146, 147, 148, 149, 150, 151, 152,
			153, 154, 155, 156, 157, 158, 159, 160,
			161, 162, 163, 164
		</NodeSet>
		<NodeSet name="FixedDisplacement02">
			1, 2, 3, 4, 5, 6, 7, 8,
			9, 10, 11, 12, 13, 14, 15, 16,
			17, 18, 19, 20, 21, 22, 23, 24,
			25, 26, 27, 28, 29, 30, 31, 32,
			33, 34, 35, 36, 37, 38, 39, 40,
			41, 42, 43, 44, 45, 46, 47, 48,
			49, 50, 51, 52, 53, 54, 55, 56,
			57, 58, 59, 60, 61, 62, 63, 64,
			65, 66, 67, 68, 69, 70, 71, 72,
			73, 74, 75, 76, 77, 78, 79, 80,
			81, 82, 83, 84, 85, 86, 87, 88,
			89, 90, 91, 92, 93, 94, 95, 96,
			97, 98, 99, 100, 101, 102, 103, 104,
			105, 106, 107, 108, 109, 110, 111, 112,
			113, 114, 115, 116, 117, 118, 119, 120,
			121, 122, 123, 124, 125, 126, 127, 128,
			129, 130, 131, 132, 133, 134, 135, 136,
			137, 138, 139, 140, 141, 142, 143, 144,
			145, 146, 147, 148, 149, 150, 151, 152,
			153, 154, 155, 156, 157, 158, 159, 160,
			161, 162, 163, 164
		</NodeSet>
		<NodeSet name="FixedDisplacement03">
			1, 42, 83, 124
		</NodeSet>
		<NodeSet name="PrescribedBC165">
			41, 82, 123, 164
		</NodeSet>
		<NodeSet name="PrescribedBC166">
			41, 82, 123, 164
		</NodeSet>
		<NodeSet name="PrescribedBC167">
			41, 82, 123, 164
		</NodeSet>
		<NodeSet name="InitialConcentration01">
			1, 2, 3, 4, 5, 6, 7, 8,
			9, 10, 11, 12, 13, 14, 15, 16,
			17, 18, 19, 20, 21, 22, 23, 24,
			25, 26, 27, 28, 29, 30, 31, 32,
			33, 34, 35, 36, 37, 38, 39, 40,
			41, 42, 43, 44, 45, 46, 47, 48,
			49, 50, 51, 52, 53, 54, 55, 56,
			57, 58, 59, 60, 61, 62, 63, 64,
			65, 66, 67, 68, 69, 70, 71, 72,
			73, 74, 75, 76, 77, 78, 79, 80,
			81, 82, 83, 84, 85, 86, 87, 88,
			89, 90, 91, 92, 93, 94, 95, 96,
			97, 98, 99, 100, 101, 102, 103, 104,
			105, 106, 107, 108, 109, 110, 111, 112,
			113, 114, 115, 116, 117, 118, 119, 120,
			121, 122, 123, 124, 125, 126, 127, 128,
			129, 130, 131, 132, 133, 134, 135, 136,
			137, 138, 139, 140, 141, 142, 143, 144,
			145, 146, 147, 148, 149, 150, 151, 152,
			153, 154, 155, 156, 157, 158, 159, 160,
			161, 162, 163, 164
		</NodeSet>
		<NodeSet name="InitialFluidPressure01">
			1, 2, 3, 4, 5, 6, 7, 8,
			9, 10, 11, 12, 13, 14, 15, 16,
			17, 18, 19, 20, 21, 22, 23, 24,
			25, 26, 27, 28, 29, 30, 31, 32,
			33, 34, 35, 36, 37, 38, 39, 40,
			41, 42, 43, 44, 45, 46, 47, 48,
			49, 50, 51, 52, 53, 54, 55, 56,
			57, 58, 59, 60, 61, 62, 63, 64,
			65, 66, 67, 68, 69, 70, 71, 72,
			73, 74, 75, 76, 77, 78, 79, 80,
			81, 82, 83, 84, 85, 86, 87, 88,
			89, 90, 91, 92, 93, 94, 95, 96,
			97, 98, 99, 100, 101, 102, 103, 104,
			105, 106, 107, 108, 109, 110, 111, 112,
			113, 114, 115, 116, 117, 118, 119, 120,
			121, 122, 123, 124, 125, 126, 127, 128,
			129, 130, 131, 132, 133, 134, 135, 136,
			137, 138, 139, 140, 141, 142, 143, 144,
			145, 146, 147, 148, 149, 150, 151, 152,
			153, 154, 155, 156, 157, 158, 159, 160,
			161, 162, 163, 164
		</NodeSet>
		<NodeSet name="PrescribedBC168">
			41, 82, 123, 164
		</NodeSet>
		<ElementSet name="unnamed_set01">
			26
		</ElementSet>
	</Mesh>
	<MeshDomains>
		<SolidDomain name="Part1" mat="Triphasic"/>
	</MeshDomains>
	<Boundary>
		<bc name="FixedDisplacement01" node_set="FixedDisplacement01" type="zero displacement">
			<x_dof>1</x_dof>
			<y_dof>0</y_dof>
			<z_dof>0</z_dof>
		</bc>
		<bc name="FixedDisplacement02" node_set="FixedDisplacement02" type="zero displacement">
			<x_dof>0</x_dof>
			<y_dof>1</y_dof>
			<z_dof>0</z_dof>
		</bc>
		<bc name="FixedDisplacement03" node_set="FixedDisplacement03" type="zero displacement">
			<x_dof>0</x_dof>
			<y_dof>0</y_dof>
			<z_dof>1</z_dof>
		</bc>
		<bc name="PrescribedBC165" node_set="PrescribedBC165" type="prescribed fluid pressure">
			<value lc="4">1</value>
			<relative>0</relative>
		</bc>
		<bc name="PrescribedBC166" node_set="PrescribedBC166" type="prescribed concentration">
			<dof>c1</dof>
			<value lc="5">1</value>
			<relative>0</relative>
		</bc>
		<bc name="PrescribedBC167" node_set="PrescribedBC167" type="prescribed concentration">
			<dof>c2</dof>
			<value lc="6">1</value>
			<relative>0</relative>
		</bc>
	</Boundary>
	<Initial>
		<ic name="InitConcentration01" node_set="InitialConcentration01" type="initial concentration">
			<dof>c1</dof>
			<value>150</value>
		</ic>
		<ic name="InitConcentration02" node_set="InitialConcentration01" type="initial concentration">
			<dof>c2</dof>
			<value>150</value>
		</ic>
		<ic name="InitialFluidPressure01" node_set="InitialFluidPressure01" type="initial fluid pressure">
			<value>-0.73084</value>
		</ic>
	</Initial>
	<Step>
		<step id="1" name="Step02">
			<Control>
				<analysis>STEADY-STATE</analysis>
				<time_steps>10</time_steps>
				<step_size>0.1</step_size>
				<plot_zero_state>0</plot_zero_state>
				<plot_range>0,-1</plot_range>
				<plot_level>PLOT_MAJOR_ITRS</plot_level>
				<output_level>OUTPUT_MAJOR_ITRS</output_level>
				<plot_stride>1</plot_stride>
				<adaptor_re_solve>1</adaptor_re_solve>
				<time_stepper type="default">
					<max_retries>5</max_retries>
					<opt_iter>10</opt_iter>
					<dtmin>0.01</dtmin>
					<dtmax lc="1">0</dtmax>
					<aggressiveness>0</aggressiveness>
					<cutback>0.5</cutback>
					<dtforce>0</dtforce>
				</time_stepper>
				<solver type="multiphasic">
					<symmetric_stiffness>non-symmetric</symmetric_stiffness>
					<equation_scheme>staggered</equation_scheme>
					<equation_order>default</equation_order>
					<optimize_bw>0</optimize_bw>
					<lstol>0.9</lstol>
					<lsmin>0.01</lsmin>
					<lsiter>5</lsiter>
					<max_refs>15</max_refs>
					<check_zero_diagonal>0</check_zero_diagonal>
					<zero_diagonal_tol>0</zero_diagonal_tol>
					<force_partition>0</force_partition>
					<reform_each_time_step>1</reform_each_time_step>
					<reform_augment>0</reform_augment>
					<diverge_reform>1</diverge_reform>
					<min_residual>1e-20</min_residual>
					<max_residual>0</max_residual>
					<dtol>0.001</dtol>
					<etol>0.01</etol>
					<rtol>0</rtol>
					<rhoi>-2</rhoi>
					<alpha>1</alpha>
					<beta>0.25</beta>
					<gamma>0.5</gamma>
					<logSolve>0</logSolve>
					<arc_length>0</arc_length>
					<arc_length_scale>0</arc_length_scale>
					<ptol>0.01</ptol>
					<ctol>0.01</ctol>
					<force_positive_concentrations>1</force_positive_concentrations>
					<qn_method type="Broyden">
						<max_ups>0</max_ups>
						<max_buffer_size>0</max_buffer_size>
						<cycle_buffer>1</cycle_buffer>
						<cmax>100000</cmax>
					</qn_method>
				</solver>
			</Control>
		</step>
		<step id="2" name="Step03">
			<Control>
				<analysis>TRANSIENT</analysis>
				<time_steps>20000</time_steps>
				<step_size>0.1</step_size>
				<plot_zero_state>0</plot_zero_state>
				<plot_range>0,-1</plot_range>
				<plot_level>PLOT_MAJOR_ITRS</plot_level>
				<output_level>OUTPUT_MAJOR_ITRS</output_level>
				<plot_stride>1</plot_stride>
				<adaptor_re_solve>1</adaptor_re_solve>
				<time_stepper type="default">
					<max_retries>5</max_retries>
					<opt_iter>10</opt_iter>
					<dtmin>0.01</dtmin>
					<dtmax lc="2">0</dtmax>
					<aggressiveness>0</aggressiveness>
					<cutback>0.5</cutback>
					<dtforce>0</dtforce>
				</time_stepper>
				<solver type="multiphasic">
					<symmetric_stiffness>non-symmetric</symmetric_stiffness>
					<equation_scheme>staggered</equation_scheme>
					<equation_order>default</equation_order>
					<optimize_bw>0</optimize_bw>
					<lstol>0.9</lstol>
					<lsmin>0.01</lsmin>
					<lsiter>5</lsiter>
					<max_refs>15</max_refs>
					<check_zero_diagonal>0</check_zero_diagonal>
					<zero_diagonal_tol>0</zero_diagonal_tol>
					<force_partition>0</force_partition>
					<reform_each_time_step>1</reform_each_time_step>
					<reform_augment>0</reform_augment>
					<diverge_reform>1</diverge_reform>
					<min_residual>1e-20</min_residual>
					<max_residual>0</max_residual>
					<dtol>0.001</dtol>
					<etol>0.01</etol>
					<rtol>0</rtol>
					<rhoi>-2</rhoi>
					<alpha>1</alpha>
					<beta>0.25</beta>
					<gamma>0.5</gamma>
					<logSolve>0</logSolve>
					<arc_length>0</arc_length>
					<arc_length_scale>0</arc_length_scale>
					<ptol>0.01</ptol>
					<ctol>0.01</ctol>
					<force_positive_concentrations>1</force_positive_concentrations>
					<qn_method type="Broyden">
						<max_ups>0</max_ups>
						<max_buffer_size>0</max_buffer_size>
						<cycle_buffer>1</cycle_buffer>
						<cmax>100000</cmax>
					</qn_method>
				</solver>
			</Control>
			<Boundary>
				<bc name="PrescribedBC168" node_set="PrescribedBC168" type="prescribed displacement">
					<dof>z</dof>
					<value lc="7">1</value>
					<relative>1</relative>
				</bc>
			</Boundary>
		</step>
	</Step>
	<LoadData>
		<load_controller id="1" name="LC1" type="loadcurve">
			<interpolate>STEP</interpolate>
			<extend>CONSTANT</extend>
			<points>
				<pt>0,0</pt>
				<pt>1,1</pt>
			</points>
		</load_controller>
		<load_controller id="2" name="LC2" type="loadcurve">
			<interpolate>STEP</interpolate>
			<extend>CONSTANT</extend>
			<points>
				<pt>1,20</pt>
				<pt>101,20</pt>
				<pt>201,20</pt>
				<pt>241,20</pt>
				<pt>2001,20</pt>
			</points>
		</load_controller>
		<load_controller id="3" name="LC3" type="loadcurve">
			<interpolate>LINEAR</interpolate>
			<extend>CONSTANT</extend>
			<points>
				<pt>0,0</pt>
				<pt>1,-200</pt>
			</points>
		</load_controller>
		<load_controller id="4" name="LC4" type="loadcurve">
			<interpolate>STEP</interpolate>
			<extend>CONSTANT</extend>
			<points>
				<pt>0,0</pt>
				<pt>1,-0.73084</pt>
			</points>
		</load_controller>
		<load_controller id="5" name="LC5" type="loadcurve">
			<interpolate>STEP</interpolate>
			<extend>CONSTANT</extend>
			<points>
				<pt>0,0</pt>
				<pt>1,150</pt>
			</points>
		</load_controller>
		<load_controller id="6" name="LC6" type="loadcurve">
			<interpolate>STEP</interpolate>
			<extend>CONSTANT</extend>
			<points>
				<pt>0,0</pt>
				<pt>1,150</pt>
			</points>
		</load_controller>
		<load_controller id="7" name="LC7" type="loadcurve">
			<interpolate>LINEAR</interpolate>
			<extend>CONSTANT</extend>
			<points>
				<pt>0,0</pt>
				<pt>1,0</pt>
				<pt>201,-0.1</pt>
			</points>
		</load_controller>
	</LoadData>
	<Output>
		<plotfile type="febio">
			<var type="current density"/>
			<var type="displacement"/>
			<var type="stress"/>
			<var type="effective fluid pressure"/>
			<var type="fluid pressure"/>
			<var type="fluid flux"/>
			<var type="effective solute concentration"/>
			<var type="electric potential"/>
			<var type="fixed charge density"/>
			<var type="solute concentration"/>
			<var type="solute flux"/>
		</plotfile>
		<logfile>
			<element_data data="sx" elem_set="unnamed_set01"/>
		</logfile>
	</Output>
</febio_spec>
