<?xml version="1.0" encoding="ISO-8859-1"?>
<!--
Onedimensional osmotic loading of an inhomogeneous block consisting of two multiphasic domains containing different solutes.  There are three solute species in this problem: A neutral solute in one of the multiphasic mixtures, and two monovalent counterions in the other (charged) multiphasic mixture.  Solutes cannot transport from one material to the other, since there are no shared solute species
-->
<febio_spec version="4.0">
	<Module type="multiphasic"/>
	<Control>
		<analysis>TRANSIENT</analysis>
		<time_steps>10000</time_steps>
		<step_size>1</step_size>
		<plot_zero_state>0</plot_zero_state>
		<plot_range>0,-1</plot_range>
		<plot_level>PLOT_MAJOR_ITRS</plot_level>
		<output_level>OUTPUT_MAJOR_ITRS</output_level>
		<plot_stride>1</plot_stride>
		<adaptor_re_solve>1</adaptor_re_solve>
		<time_stepper type="default">
			<max_retries>5</max_retries>
			<opt_iter>10</opt_iter>
			<dtmin>0.01</dtmin>
			<dtmax lc="1">0</dtmax>
			<aggressiveness>0</aggressiveness>
			<cutback>0.5</cutback>
			<dtforce>0</dtforce>
		</time_stepper>
		<solver type="multiphasic">
			<symmetric_stiffness>non-symmetric</symmetric_stiffness>
			<equation_scheme>staggered</equation_scheme>
			<equation_order>default</equation_order>
			<optimize_bw>0</optimize_bw>
			<lstol>0.9</lstol>
			<lsmin>0.01</lsmin>
			<lsiter>5</lsiter>
			<max_refs>15</max_refs>
			<check_zero_diagonal>0</check_zero_diagonal>
			<zero_diagonal_tol>0</zero_diagonal_tol>
			<force_partition>0</force_partition>
			<reform_each_time_step>1</reform_each_time_step>
			<reform_augment>0</reform_augment>
			<diverge_reform>1</diverge_reform>
			<min_residual>1e-20</min_residual>
			<max_residual>0</max_residual>
			<dtol>0.001</dtol>
			<etol>0.01</etol>
			<rtol>0</rtol>
			<rhoi>-2</rhoi>
			<alpha>1</alpha>
			<beta>0.25</beta>
			<gamma>0.5</gamma>
			<logSolve>0</logSolve>
			<arc_length>0</arc_length>
			<arc_length_scale>0</arc_length_scale>
			<ptol>0.01</ptol>
			<ctol>0.01</ctol>
			<force_positive_concentrations>1</force_positive_concentrations>
			<qn_method type="Broyden">
				<max_ups>0</max_ups>
				<max_buffer_size>0</max_buffer_size>
				<cycle_buffer>1</cycle_buffer>
				<cmax>100000</cmax>
			</qn_method>
		</solver>
	</Control>
	<Globals>
		<Constants>
			<T>293</T>
			<R>8.314e-06</R>
			<Fc>9.65e-05</Fc>
		</Constants>
		<Solutes>
			<solute id="1" name="neutral">
				<charge_number>0</charge_number>
				<molar_mass>1</molar_mass>
				<density>1</density>
			</solute>
			<solute id="2" name="Na+">
				<charge_number>1</charge_number>
				<molar_mass>1</molar_mass>
				<density>1</density>
			</solute>
			<solute id="3" name="Cl-">
				<charge_number>-1</charge_number>
				<molar_mass>1</molar_mass>
				<density>1</density>
			</solute>
		</Solutes>
	</Globals>
	<Material>
		<material id="1" name="Triphasic" type="multiphasic">
			<phi0>0.2</phi0>
			<fluid_density>0</fluid_density>
			<penalty>1</penalty>
			<fixed_charge_density>-200</fixed_charge_density>
			<solid type="neo-Hookean">
				<density>1</density>
				<E>1</E>
				<v>0</v>
			</solid>
			<permeability type="perm-const-iso">
				<perm>0.001</perm>
			</permeability>
			<osmotic_coefficient type="osm-coef-const">
				<osmcoef>1</osmcoef>
			</osmotic_coefficient>
			<solute sol="Na+">
				<diffusivity type="diff-const-iso">
					<free_diff>0.001</free_diff>
					<diff>0.0005</diff>
				</diffusivity>
				<solubility type="solub-const">
					<solub>1</solub>
				</solubility>
			</solute>
			<solute sol="Cl-">
				<diffusivity type="diff-const-iso">
					<free_diff>0.0016</free_diff>
					<diff>0.0008</diff>
				</diffusivity>
				<solubility type="solub-const">
					<solub>1</solub>
				</solubility>
			</solute>
		</material>
		<material id="2" name="Biphasic-Solute" type="multiphasic">
			<phi0>0.2</phi0>
			<fluid_density>0</fluid_density>
			<penalty>1</penalty>
			<fixed_charge_density>0</fixed_charge_density>
			<solid type="neo-Hookean">
				<density>1</density>
				<E>1</E>
				<v>0</v>
			</solid>
			<permeability type="perm-const-iso">
				<perm>0.001</perm>
			</permeability>
			<osmotic_coefficient type="osm-coef-const">
				<osmcoef>1</osmcoef>
			</osmotic_coefficient>
			<solute sol="neutral">
				<diffusivity type="diff-const-iso">
					<free_diff>0.001</free_diff>
					<diff>0.0005</diff>
				</diffusivity>
				<solubility type="solub-const">
					<solub>1</solub>
				</solubility>
			</solute>
		</material>
	</Material>
	<Mesh>
		<Nodes name="Object01">
			<node id="1">-0.5,-0.5,0</node>
			<node id="2">-0.5,-0.5,0.01173172</node>
			<node id="3">-0.5,-0.5,0.026982956</node>
			<node id="4">-0.5,-0.5,0.046809562</node>
			<node id="5">-0.5,-0.5,0.07258415</node>
			<node id="6">-0.5,-0.5,0.10609112</node>
			<node id="7">-0.5,-0.5,0.14965017</node>
			<node id="8">-0.5,-0.5,0.20627694</node>
			<node id="9">-0.5,-0.5,0.27989174</node>
			<node id="10">-0.5,-0.5,0.37559098</node>
			<node id="11">-0.5,-0.5,0.5</node>
			<node id="12">-0.5,-0.5,0.62440902</node>
			<node id="13">-0.5,-0.5,0.72010826</node>
			<node id="14">-0.5,-0.5,0.79372306</node>
			<node id="15">-0.5,-0.5,0.85034983</node>
			<node id="16">-0.5,-0.5,0.89390888</node>
			<node id="17">-0.5,-0.5,0.92741585</node>
			<node id="18">-0.5,-0.5,0.95319044</node>
			<node id="19">-0.5,-0.5,0.97301704</node>
			<node id="20">-0.5,-0.5,0.98826828</node>
<!-- ... 144 like lines cut -->
		</Nodes>
		<Elements type="hex8" name="Part1">
			<elem id="1">1,43,64,22,2,44,65,23</elem>
			<elem id="2">2,44,65,23,3,45,66,24</elem>
			<elem id="3">3,45,66,24,4,46,67,25</elem>
			<elem id="4">4,46,67,25,5,47,68,26</elem>
			<elem id="5">5,47,68,26,6,48,69,27</elem>
			<elem id="6">6,48,69,27,7,49,70,28</elem>
			<elem id="7">7,49,70,28,8,50,71,29</elem>
			<elem id="8">8,50,71,29,9,51,72,30</elem>
			<elem id="9">9,51,72,30,10,52,73,31</elem>
			<elem id="10">10,52,73,31,11,53,74,32</elem>
			<elem id="11">11,53,74,32,12,54,75,33</elem>
			<elem id="12">12,54,75,33,13,55,76,34</elem>
			<elem id="13">13,55,76,34,14,56,77,35</elem>
			<elem id="14">14,56,77,35,15,57,78,36</elem>
			<elem id="15">15,57,78,36,16,58,79,37</elem>
			<elem id="16">16,58,79,37,17,59,80,38</elem>
			<elem id="17">17,59,80,38,18,60,81,39</elem>
			<elem id="18">18,60,81,39,19,61,82,40</elem>
			<elem id="19">19,61,82,40,20,62,83,41</elem>
			<elem id="20">20,62,83,41,21,63,84,42</elem>
		</Elements>
		<Elements type="hex8" name="Part2">
			<elem id="21">21,63,84,42,85,125,145,105</elem>
			<elem id="22">85,125,145,105,86,126,146,106</elem>
			<elem id="23">86,126,146,106,87,127,147,107</elem>
			<elem id="24">87,127,147,107,88,128,148,108</elem>
			<elem id="25">88,128,148,108,89,129,149,109</elem>
			<elem id="26">89,129,149,109,90,130,150,110</elem>
			<elem id="27">90,130,150,110,91,131,151,111</elem>
			<elem id="28">91,131,151,111,92,132,152,112</elem>
			<elem id="29">92,132,152,112,93,133,153,113</elem>
			<elem id="30">93,133,153,113,94,134,154,114</elem>
			<elem id="31">94,134,154,114,95,135,155,115</elem>
			<elem id="32">95,135,155,115,96,136,156,116</elem>
			<elem id="33">96,136,156,116,97,137,157,117</elem>
			<elem id="34">97,137,157,117,98,138,158,118</elem>
			<elem id="35">98,138,158,118,99,139,159,119</elem>
			<elem id="36">99,139,159,119,100,140,160,120</elem>
			<elem id="37">100,140,160,120,101,141,161,121</elem>
			<elem id="38">101,141,161,121,102,142,162,122</elem>
			<elem id="39">102,142,162,122,103,143,163,123</elem>
			<elem id="40">103,143,163,123,104,144,164,124</elem>
		</Elements>
		<NodeSet name="FixedDisplacement01">
			1, 2, 3, 4, 5, 6, 7, 8,
			9, 10, 11, 12, 13, 14, 15, 16,
			17, 18, 19, 20, 21, 22, 23, 24,
			25, 26, 27, 28, 29, 30, 31, 32,
			33, 34, 35, 36, 37, 38, 39, 40,
			41, 42, 43, 44, 45, 46, 47, 48,
			49, 50, 51, 52, 53, 54, 55, 56,
			57, 58, 59, 60, 61, 62, 63, 64,
			65, 66, 67, 68, 69, 70, 71, 72,
			73, 74, 75, 76, 77, 78, 79, 80,
			81, 82, 83, 84, 85, 86, 87, 88,
			89, 90, 91, 92, 93, 94, 95, 96,
			97, 98, 99, 100, 101, 102, 103, 104,
			105, 106, 107, 108, 109, 110, 111, 112,
			113, 114, 115, 116, 117, 118, 119, 120,
			121, 122, 123, 124, 125, 126, 127, 128,
			129, 130, 131, 132, 133, 134, 135, 136,
			137, 138, 139, 140, 141, 142, 143, 144,
			145, 146, 147, 148, 149, 150, 151, 152,
			153, 154, 155, 156, 157, 158, 159, 160,
			161, 162, 163, 164
		</NodeSet>
		<NodeSet name="FixedDisplacement02">
			1, 2, 3, 4, 5, 6, 7, 8,
			9, 10, 11, 12, 13, 14, 15, 16,
			17, 18, 19, 20, 21, 22, 23, 24,
			25, 26, 27, 28, 29, 30, 31, 32,
			33, 34, 35, 36, 37, 38, 39, 40,
			41, 42, 43, 44, 45, 46, 47, 48,
			49, 50, 51, 52, 53, 54, 55, 56,
			57, 58, 59, 60, 61, 62, 63, 64,
			65, 66, 67, 68, 69, 70, 71, 72,
			73, 74, 75, 76, 77, 78, 79, 80,
			81, 82, 83, 84, 85, 86, 87, 88,
			89, 90, 91, 92, 93, 94, 95, 96,
			97, 98, 99, 100, 101, 102, 103, 104,
			105, 106, 107, 108, 109, 110, 111, 112,
			113, 114, 115, 116, 117, 118, 119, 120,
			121, 122, 123, 124, 125, 126, 127, 128,
			129, 130, 131, 132, 133, 134, 135, 136,
			137, 138, 139, 140, 141, 142, 143, 144,
			145, 146, 147, 148, 149, 150, 151, 152,
			153, 154, 155, 156, 157, 158, 159, 160,
			161, 162, 163, 164
		</NodeSet>
		<NodeSet name="FixedDisplacement03">
			1, 22, 43, 64
		</NodeSet>
		<NodeSet name="PrescribedBC15">
			104, 124, 144, 164
		</NodeSet>
		<NodeSet name="PrescribedBC16">
			104, 124, 144, 164
		</NodeSet>
		<NodeSet name="PrescribedBC17">
			1, 22, 43, 64
		</NodeSet>
		<NodeSet name="InitialConcentration01">
			21, 42, 63, 84, 85, 86, 87, 88,
			89, 90, 91, 92, 93, 94, 95, 96,
			97, 98, 99, 100, 101, 102, 103, 104,
			105, 106, 107, 108, 109, 110, 111, 112,
			113, 114, 115, 116, 117, 118, 119, 120,
			121, 122, 123, 124, 125, 126, 127, 128,
			129, 130, 131, 132, 133, 134, 135, 136,
			137, 138, 139, 140, 141, 142, 143, 144,
			145, 146, 147, 148, 149, 150, 151, 152,
			153, 154, 155, 156, 157, 158, 159, 160,
			161, 162, 163, 164
		</NodeSet>
		<NodeSet name="InitialConcentration02">
			1, 2, 3, 4, 5, 6, 7, 8,
			9, 10, 11, 12, 13, 14, 15, 16,
			17, 18, 19, 20, 21, 22, 23, 24,
			25, 26, 27, 28, 29, 30, 31, 32,
			33, 34, 35, 36, 37, 38, 39, 40,
			41, 42, 43, 44, 45, 46, 47, 48,
			49, 50, 51, 52, 53, 54, 55, 56,
			57, 58, 59, 60, 61, 62, 63, 64,
			65, 66, 67, 68, 69, 70, 71, 72,
			73, 74, 75, 76, 77, 78, 79, 80,
			81, 82, 83, 84
		</NodeSet>
		<NodeSet name="InitialConcentration03">
			1, 2, 3, 4, 5, 6, 7, 8,
			9, 10, 11, 12, 13, 14, 15, 16,
			17, 18, 19, 20, 21, 22, 23, 24,
			25, 26, 27, 28, 29, 30, 31, 32,
			33, 34, 35, 36, 37, 38, 39, 40,
			41, 42, 43, 44, 45, 46, 47, 48,
			49, 50, 51, 52, 53, 54, 55, 56,
			57, 58, 59, 60, 61, 62, 63, 64,
			65, 66, 67, 68, 69, 70, 71, 72,
			73, 74, 75, 76, 77, 78, 79, 80,
			81, 82, 83, 84
		</NodeSet>
		<NodeSet name="InitialFluidPressure01">
			21, 42, 63, 84, 85, 86, 87, 88,
			89, 90, 91, 92, 93, 94, 95, 96,
			97, 98, 99, 100, 101, 102, 103, 104,
			105, 106, 107, 108, 109, 110, 111, 112,
			113, 114, 115, 116, 117, 118, 119, 120,
			121, 122, 123, 124, 125, 126, 127, 128,
			129, 130, 131, 132, 133, 134, 135, 136,
			137, 138, 139, 140, 141, 142, 143, 144,
			145, 146, 147, 148, 149, 150, 151, 152,
			153, 154, 155, 156, 157, 158, 159, 160,
			161, 162, 163, 164
		</NodeSet>
		<NodeSet name="InitialFluidPressure02">
			1, 2, 3, 4, 5, 6, 7, 8,
			9, 10, 11, 12, 13, 14, 15, 16,
			17, 18, 19, 20, 21, 22, 23, 24,
			25, 26, 27, 28, 29, 30, 31, 32,
			33, 34, 35, 36, 37, 38, 39, 40,
			41, 42, 43, 44, 45, 46, 47, 48,
			49, 50, 51, 52, 53, 54, 55, 56,
			57, 58, 59, 60, 61, 62, 63, 64,
			65, 66, 67, 68, 69, 70, 71, 72,
			73, 74, 75, 76, 77, 78, 79, 80,
			81, 82, 83, 84
		</NodeSet>
		<ElementSet name="unnamed_set01">
			31
		</ElementSet>
	</Mesh>
	<MeshDomains>
		<SolidDomain name="Part1" mat="Triphasic"/>
		<SolidDomain name="Part2" mat="Biphasic-Solute"/>
	</MeshDomains>
	<Boundary>
		<bc name="FixedDisplacement01" node_set="FixedDisplacement01" type="zero displacement">
			<x_dof>1</x_dof>
			<y_dof>0</y_dof>
			<z_dof>0</z_dof>
		</bc>
		<bc name="FixedDisplacement02" node_set="FixedDisplacement02" type="zero displacement">
			<x_dof>0</x_dof>
			<y_dof>1</y_dof>
			<z_dof>0</z_dof>
		</bc>
		<bc name="FixedDisplacement03" node_set="FixedDisplacement03" type="zero displacement">
			<x_dof>0</x_dof>
			<y_dof>0</y_dof>
			<z_dof>1</z_dof>
		</bc>
		<bc name="PrescribedBC15" node_set="PrescribedBC15" type="prescribed concentration">
			<dof>c1</dof>
			<value lc="2">1</value>
			<relative>0</relative>
		</bc>
		<bc name="PrescribedBC16" node_set="PrescribedBC16" type="prescribed fluid pressure">
			<value lc="3">1</value>
			<relative>0</relative>
		</bc>
		<bc name="PrescribedBC17" node_set="PrescribedBC17" type="prescribed concentration">
			<dof>c3</dof>
			<value lc="4">1</value>
			<relative>0</relative>
		</bc>
	</Boundary>
	<Initial>
		<ic name="InitConcentration01" node_set="InitialConcentration01" type="initial concentration">
			<dof>c1</dof>
			<value>300</value>
		</ic>
		<ic name="InitConcentration02" node_set="InitialConcentration02" type="initial concentration">
			<dof>c2</dof>
			<value>150</value>
		</ic>
		<ic name="InitConcentration03" node_set="InitialConcentration03" type="initial concentration">
			<dof>c3</dof>
			<value>150</value>
		</ic>
		<ic name="InitialFluidPressure01" node_set="InitialFluidPressure01" type="initial fluid pressure">
			<value>-0.730801</value>
		</ic>
		<ic name="InitialFluidPressure02" node_set="InitialFluidPressure02" type="initial fluid pressure">
			<value>-0.730801</value>
		</ic>
	</Initial>
	<LoadData>
		<load_controller id="1" name="LC1" type="loadcurve">
			<interpolate>STEP</interpolate>
			<extend>CONSTANT</extend>
			<points>
				<pt>0,0</pt>
				<pt>1,0.1</pt>
				<pt>10,1</pt>
				<pt>100,10</pt>
				<pt>1000,100</pt>
				<pt>10000,1000</pt>
			</points>
		</load_controller>
		<load_controller id="2" name="LC2" type="loadcurve">
			<interpolate>LINEAR</interpolate>
			<extend>CONSTANT</extend>
			<points>
				<pt>0,300</pt>
				<pt>1,600</pt>
			</points>
		</load_controller>
		<load_controller id="3" name="LC3" type="loadcurve">
			<interpolate>LINEAR</interpolate>
			<extend>CONSTANT</extend>
			<points>
				<pt>0,-0.7308006</pt>
				<pt>1,-1.4616012</pt>
			</points>
		</load_controller>
		<load_controller id="4" name="LC4" type="loadcurve">
			<interpolate>STEP</interpolate>
			<extend>CONSTANT</extend>
			<points>
				<pt>0,0</pt>
				<pt>1,150</pt>
			</points>
		</load_controller>
	</LoadData>
	<Output>
		<plotfile type="febio">
			<var type="current density"/>
			<var type="displacement"/>
			<var type="reaction forces"/>
			<var type="relative volume"/>
			<var type="stress"/>
			<var type="effective fluid pressure"/>
			<var type="fluid pressure"/>
			<var type="fluid flux"/>
			<var type="effective solute concentration"/>
			<var type="electric potential"/>
			<var type="fixed charge density"/>
			<var type="solute concentration"/>
			<var type="solute flux"/>
		</plotfile>
		<logfile>
			<element_data data="wz" elem_set="unnamed_set01"/>
		</logfile>
	</Output>
</febio_spec>
