<?xml version="1.0" encoding="ISO-8859-1"?>
<!--
Unconfined compression creep response of charged multiphasic material containing NaCl. 
The solid matrix consists of a neoHookean ground matrix + ellipsoidal fiber distribution.
A twostep analysis is performed: (1) The first step (from 0 to 1 s) is a steadystate analysis
needed to produce equilibrium free swelling by raising the fixed charged density from zero 
to the final desired value. During this step the loading platen is maintained stationary so
that the swelling produces a small tare load. (2) The second step (from 1 to 7201 s) is a 
transient analysis where a constant compressive load (0.471) is prescribed to the loading platen
while the material undergoes creep deformation.
-->
<febio_spec version="4.0">
	<Module type="multiphasic"/>
	<Globals>
		<Constants>
			<T>310</T>
			<R>8.314e-06</R>
			<Fc>9.65e-05</Fc>
		</Constants>
		<Solutes>
			<solute id="1" name="Cl-">
				<charge_number>-1</charge_number>
				<molar_mass>1</molar_mass>
				<density>1</density>
			</solute>
			<solute id="2" name="Na+">
				<charge_number>1</charge_number>
				<molar_mass>1</molar_mass>
				<density>1</density>
			</solute>
		</Solutes>
	</Globals>
	<Material>
		<material id="1" name="Cartilage NaCl" type="multiphasic">
			<phi0>0.2</phi0>
			<fluid_density>0</fluid_density>
			<penalty>1</penalty>
			<fixed_charge_density lc="2">1</fixed_charge_density>
			<solid type="EFD neo-Hookean">
				<density>1</density>
				<E>0.1</E>
				<v>0</v>
				<beta>2.5,2.5,2.5</beta>
				<ksi>2,2,2</ksi>
			</solid>
			<permeability type="perm-Holmes-Mow">
				<perm>0.001</perm>
				<M>4</M>
				<alpha>2</alpha>
			</permeability>
			<osmotic_coefficient type="osm-coef-const">
				<osmcoef>1</osmcoef>
			</osmotic_coefficient>
			<solute sol="Cl-">
				<diffusivity type="diff-const-iso">
					<free_diff>0.001</free_diff>
					<diff>0.0005</diff>
				</diffusivity>
				<solubility type="solub-const">
					<solub>1</solub>
				</solubility>
			</solute>
			<solute sol="Na+">
				<diffusivity type="diff-const-iso">
					<free_diff>0.0016</free_diff>
					<diff>0.0008</diff>
				</diffusivity>
				<solubility type="solub-const">
					<solub>1</solub>
				</solubility>
			</solute>
		</material>
		<material id="2" name="Symmetry Plane" type="rigid body">
			<density>1</density>
			<E>1</E>
			<v>0</v>
			<center_of_mass>0,0,0</center_of_mass>
		</material>
		<material id="3" name="Platen" type="rigid body">
			<density>1</density>
			<E>1</E>
			<v>0</v>
			<center_of_mass>0,0,1.5</center_of_mass>
		</material>
	</Material>
	<Mesh>
		<Nodes name="Object01">
			<node id="1">0,0,0</node>
			<node id="2">0.45346025,0,0</node>
			<node id="3">0.44958083,0.059188438,0</node>
			<node id="4">0.83890146,0,0</node>
			<node id="5">0.83172454,0.10949861,0</node>
			<node id="6">1.1665265,0,0</node>
			<node id="7">1.1565467,0.15226226,0</node>
			<node id="8">1.4450078,0,0</node>
			<node id="9">1.4326455,0.18861136,0</node>
			<node id="10">1.6817168,0,0</node>
			<node id="11">1.6673295,0.21950809,0</node>
			<node id="12">1.8829196,0,0</node>
			<node id="13">1.8668109,0.24577032,0</node>
			<node id="14">2.0539419,0,0</node>
			<node id="15">2.0363701,0.26809321,0</node>
			<node id="16">2.1993108,0,0</node>
			<node id="17">2.1804954,0.28706766,0</node>
			<node id="18">2.3228745,0,0</node>
			<node id="19">2.3030019,0.30319595,0</node>
			<node id="20">2.4279035,0,0</node>
<!-- ... 110 like lines cut -->
		</Nodes>
		<Elements type="penta6" name="Part01">
			<elem id="1">1,2,3,62,63,64</elem>
		</Elements>
		<Elements type="hex8" name="Part01(2)">
			<elem id="2">2,4,5,3,63,65,66,64</elem>
			<elem id="3">4,6,7,5,65,67,68,66</elem>
			<elem id="4">6,8,9,7,67,69,70,68</elem>
			<elem id="5">8,10,11,9,69,71,72,70</elem>
			<elem id="6">10,12,13,11,71,73,74,72</elem>
			<elem id="7">12,14,15,13,73,75,76,74</elem>
			<elem id="8">14,16,17,15,75,77,78,76</elem>
			<elem id="9">16,18,19,17,77,79,80,78</elem>
			<elem id="10">18,20,21,19,79,81,82,80</elem>
			<elem id="11">20,22,23,21,81,83,84,82</elem>
			<elem id="12">22,24,25,23,83,85,86,84</elem>
			<elem id="13">24,26,27,25,85,87,88,86</elem>
			<elem id="14">26,28,29,27,87,89,90,88</elem>
			<elem id="15">28,30,31,29,89,91,92,90</elem>
			<elem id="16">30,32,33,31,91,93,94,92</elem>
			<elem id="17">32,34,35,33,93,95,96,94</elem>
			<elem id="18">34,36,37,35,95,97,98,96</elem>
			<elem id="19">36,38,39,37,97,99,100,98</elem>
			<elem id="20">38,40,41,39,99,101,102,100</elem>
			<elem id="21">40,42,43,41,101,103,104,102</elem>
<!-- ... 9 like lines cut -->
		</Elements>
		<Elements type="quad4" name="Part3">
			<elem id="31">123,125,126,124</elem>
		</Elements>
		<Elements type="quad4" name="Part4">
			<elem id="32">127,129,130,128</elem>
		</Elements>
		<NodeSet name="FixedDisplacement01">
			1, 62
		</NodeSet>
		<NodeSet name="FixedDisplacement02">
			1, 2, 4, 6, 8, 10, 12, 14,
			16, 18, 20, 22, 24, 26, 28, 30,
			32, 34, 36, 38, 40, 42, 44, 46,
			48, 50, 52, 54, 56, 58, 60, 62,
			63, 65, 67, 69, 71, 73, 75, 77,
			79, 81, 83, 85, 87, 89, 91, 93,
			95, 97, 99, 101, 103, 105, 107, 109,
			111, 113, 115, 117, 119, 121
		</NodeSet>
		<NodeSet name="FixedDisplacement03">
			1, 2, 3, 4, 5, 6, 7, 8,
			9, 10, 11, 12, 13, 14, 15, 16,
			17, 18, 19, 20, 21, 22, 23, 24,
			25, 26, 27, 28, 29, 30, 31, 32,
			33, 34, 35, 36, 37, 38, 39, 40,
			41, 42, 43, 44, 45, 46, 47, 48,
			49, 50, 51, 52, 53, 54, 55, 56,
			57, 58, 59, 60, 61
		</NodeSet>
		<NodeSet name="PrescribedBC176">
			60, 61, 121, 122
		</NodeSet>
		<NodeSet name="PrescribedBC177">
			60, 61, 121, 122
		</NodeSet>
		<NodeSet name="PrescribedBC178">
			60, 61, 121, 122
		</NodeSet>
		<NodeSet name="InitialConcentration01">
			1, 2, 3, 4, 5, 6, 7, 8,
			9, 10, 11, 12, 13, 14, 15, 16,
			17, 18, 19, 20, 21, 22, 23, 24,
			25, 26, 27, 28, 29, 30, 31, 32,
			33, 34, 35, 36, 37, 38, 39, 40,
			41, 42, 43, 44, 45, 46, 47, 48,
			49, 50, 51, 52, 53, 54, 55, 56,
			57, 58, 59, 60, 61, 62, 63, 64,
			65, 66, 67, 68, 69, 70, 71, 72,
			73, 74, 75, 76, 77, 78, 79, 80,
			81, 82, 83, 84, 85, 86, 87, 88,
			89, 90, 91, 92, 93, 94, 95, 96,
			97, 98, 99, 100, 101, 102, 103, 104,
			105, 106, 107, 108, 109, 110, 111, 112,
			113, 114, 115, 116, 117, 118, 119, 120,
			121, 122
		</NodeSet>
		<NodeSet name="InitialFluidPressure01">
			1, 2, 3, 4, 5, 6, 7, 8,
			9, 10, 11, 12, 13, 14, 15, 16,
			17, 18, 19, 20, 21, 22, 23, 24,
			25, 26, 27, 28, 29, 30, 31, 32,
			33, 34, 35, 36, 37, 38, 39, 40,
			41, 42, 43, 44, 45, 46, 47, 48,
			49, 50, 51, 52, 53, 54, 55, 56,
			57, 58, 59, 60, 61, 62, 63, 64,
			65, 66, 67, 68, 69, 70, 71, 72,
			73, 74, 75, 76, 77, 78, 79, 80,
			81, 82, 83, 84, 85, 86, 87, 88,
			89, 90, 91, 92, 93, 94, 95, 96,
			97, 98, 99, 100, 101, 102, 103, 104,
			105, 106, 107, 108, 109, 110, 111, 112,
			113, 114, 115, 116, 117, 118, 119, 120,
			121, 122
		</NodeSet>
		<Surface name="PrimarySurface01">
			<quad4 id="1">1,62,64,3</quad4>
			<quad4 id="2">5,3,64,66</quad4>
			<quad4 id="3">7,5,66,68</quad4>
			<quad4 id="4">9,7,68,70</quad4>
			<quad4 id="5">11,9,70,72</quad4>
			<quad4 id="6">13,11,72,74</quad4>
			<quad4 id="7">15,13,74,76</quad4>
			<quad4 id="8">17,15,76,78</quad4>
			<quad4 id="9">19,17,78,80</quad4>
			<quad4 id="10">21,19,80,82</quad4>
			<quad4 id="11">23,21,82,84</quad4>
			<quad4 id="12">25,23,84,86</quad4>
			<quad4 id="13">27,25,86,88</quad4>
			<quad4 id="14">29,27,88,90</quad4>
			<quad4 id="15">31,29,90,92</quad4>
			<quad4 id="16">33,31,92,94</quad4>
			<quad4 id="17">35,33,94,96</quad4>
			<quad4 id="18">37,35,96,98</quad4>
			<quad4 id="19">39,37,98,100</quad4>
			<quad4 id="20">41,39,100,102</quad4>
<!-- ... 10 like lines cut -->
		</Surface>
		<Surface name="SecondarySurface01">
			<quad4 id="1">123,125,126,124</quad4>
		</Surface>
		<Surface name="PrimarySurface02">
			<tri3 id="1">62,63,64</tri3>
			<quad4 id="2">63,65,66,64</quad4>
			<quad4 id="3">65,67,68,66</quad4>
			<quad4 id="4">67,69,70,68</quad4>
			<quad4 id="5">69,71,72,70</quad4>
			<quad4 id="6">71,73,74,72</quad4>
			<quad4 id="7">73,75,76,74</quad4>
			<quad4 id="8">75,77,78,76</quad4>
			<quad4 id="9">77,79,80,78</quad4>
			<quad4 id="10">79,81,82,80</quad4>
			<quad4 id="11">81,83,84,82</quad4>
			<quad4 id="12">83,85,86,84</quad4>
			<quad4 id="13">85,87,88,86</quad4>
			<quad4 id="14">87,89,90,88</quad4>
			<quad4 id="15">89,91,92,90</quad4>
			<quad4 id="16">91,93,94,92</quad4>
			<quad4 id="17">93,95,96,94</quad4>
			<quad4 id="18">95,97,98,96</quad4>
			<quad4 id="19">97,99,100,98</quad4>
			<quad4 id="20">99,101,102,100</quad4>
			<quad4 id="21">101,103,104,102</quad4>
<!-- ... 9 like lines cut -->
		</Surface>
		<Surface name="SecondarySurface02">
			<quad4 id="1">127,129,130,128</quad4>
		</Surface>
		<ElementSet name="unnamed_set01">
			2
		</ElementSet>
		<SurfacePair name="TCInterface01">
			<primary>PrimarySurface01</primary>
			<secondary>SecondarySurface01</secondary>
		</SurfacePair>
		<SurfacePair name="TCInterface02">
			<primary>PrimarySurface02</primary>
			<secondary>SecondarySurface02</secondary>
		</SurfacePair>
	</Mesh>
	<MeshDomains>
		<SolidDomain name="Part01" mat="Cartilage NaCl"/>
		<SolidDomain name="Part01(2)" mat="Cartilage NaCl"/>
		<ShellDomain name="Part3" mat="Symmetry Plane">
			<shell_thickness>0</shell_thickness>
		</ShellDomain>
		<ShellDomain name="Part4" mat="Platen">
			<shell_thickness>0</shell_thickness>
		</ShellDomain>
	</MeshDomains>
	<MeshData>
		<ElementData type="shell thickness" elem_set="Part3">
			<e lid="1">0.01,0.01,0.01,0.01</e>
		</ElementData>
		<ElementData type="shell thickness" elem_set="Part4">
			<e lid="1">0.01,0.01,0.01,0.01</e>
		</ElementData>
	</MeshData>
	<Boundary>
		<bc name="FixedDisplacement01" node_set="FixedDisplacement01" type="zero displacement">
			<x_dof>1</x_dof>
			<y_dof>1</y_dof>
			<z_dof>0</z_dof>
		</bc>
		<bc name="FixedDisplacement02" node_set="FixedDisplacement02" type="zero displacement">
			<x_dof>0</x_dof>
			<y_dof>1</y_dof>
			<z_dof>0</z_dof>
		</bc>
		<bc name="FixedDisplacement03" node_set="FixedDisplacement03" type="zero displacement">
			<x_dof>0</x_dof>
			<y_dof>0</y_dof>
			<z_dof>1</z_dof>
		</bc>
		<bc name="PrescribedBC176" node_set="PrescribedBC176" type="prescribed fluid pressure">
			<value lc="3">1</value>
			<relative>0</relative>
		</bc>
		<bc name="PrescribedBC177" node_set="PrescribedBC177" type="prescribed concentration">
			<dof>c1</dof>
			<value lc="4">1</value>
			<relative>0</relative>
		</bc>
		<bc name="PrescribedBC178" node_set="PrescribedBC178" type="prescribed concentration">
			<dof>c2</dof>
			<value lc="5">1</value>
			<relative>0</relative>
		</bc>
	</Boundary>
	<Rigid>
		<rigid_bc name="RigidFixed67" type="rigid_fixed">
			<rb>Symmetry Plane</rb>
			<Rx_dof>1</Rx_dof>
			<Ry_dof>1</Ry_dof>
			<Rz_dof>1</Rz_dof>
			<Ru_dof>1</Ru_dof>
			<Rv_dof>1</Rv_dof>
			<Rw_dof>1</Rw_dof>
		</rigid_bc>
		<rigid_bc name="RigidFixed68" type="rigid_fixed">
			<rb>Platen</rb>
			<Rx_dof>1</Rx_dof>
			<Ry_dof>1</Ry_dof>
			<Rz_dof>0</Rz_dof>
			<Ru_dof>1</Ru_dof>
			<Rv_dof>1</Rv_dof>
			<Rw_dof>1</Rw_dof>
		</rigid_bc>
	</Rigid>
	<Contact>
		<contact name="TCInterface01" surface_pair="TCInterface01" type="sliding-elastic">
			<laugon>PENALTY</laugon>
			<tolerance>0.2</tolerance>
			<gaptol>0</gaptol>
			<penalty>10000</penalty>
			<auto_penalty>1</auto_penalty>
			<update_penalty>0</update_penalty>
			<two_pass>0</two_pass>
			<knmult>0</knmult>
			<search_tol>0.01</search_tol>
			<symmetric_stiffness>0</symmetric_stiffness>
			<search_radius>1</search_radius>
			<seg_up>0</seg_up>
			<tension>1</tension>
			<minaug>0</minaug>
			<maxaug>10</maxaug>
			<node_reloc>0</node_reloc>
			<fric_coeff>0</fric_coeff>
			<smooth_aug>0</smooth_aug>
			<flip_primary>0</flip_primary>
			<flip_secondary>0</flip_secondary>
			<shell_bottom_primary>0</shell_bottom_primary>
			<shell_bottom_secondary>0</shell_bottom_secondary>
			<offset>0</offset>
		</contact>
		<contact name="TCInterface02" surface_pair="TCInterface02" type="sliding-elastic">
			<laugon>PENALTY</laugon>
			<tolerance>0.2</tolerance>
			<gaptol>0</gaptol>
			<penalty>10000</penalty>
			<auto_penalty>1</auto_penalty>
			<update_penalty>0</update_penalty>
			<two_pass>0</two_pass>
			<knmult>0</knmult>
			<search_tol>0.01</search_tol>
			<symmetric_stiffness>0</symmetric_stiffness>
			<search_radius>1</search_radius>
			<seg_up>0</seg_up>
			<tension>0</tension>
			<minaug>0</minaug>
			<maxaug>10</maxaug>
			<node_reloc>0</node_reloc>
			<fric_coeff>0</fric_coeff>
			<smooth_aug>0</smooth_aug>
			<flip_primary>0</flip_primary>
			<flip_secondary>0</flip_secondary>
			<shell_bottom_primary>0</shell_bottom_primary>
			<shell_bottom_secondary>0</shell_bottom_secondary>
			<offset>0</offset>
		</contact>
	</Contact>
	<Initial>
		<ic name="InitConcentration01" node_set="InitialConcentration01" type="initial concentration">
			<dof>c1</dof>
			<value>150</value>
		</ic>
		<ic name="InitConcentration02" node_set="InitialConcentration01" type="initial concentration">
			<dof>c2</dof>
			<value>150</value>
		</ic>
		<ic name="InitialFluidPressure01" node_set="InitialFluidPressure01" type="initial fluid pressure">
			<value>-0.7732</value>
		</ic>
	</Initial>
	<Step>
		<step id="1" name="Step01 Steady-State">
			<Control>
				<analysis>STEADY-STATE</analysis>
				<time_steps>10</time_steps>
				<step_size>0.1</step_size>
				<plot_zero_state>0</plot_zero_state>
				<plot_range>0,-1</plot_range>
				<plot_level>PLOT_MAJOR_ITRS</plot_level>
				<output_level>OUTPUT_MAJOR_ITRS</output_level>
				<plot_stride>1</plot_stride>
				<adaptor_re_solve>1</adaptor_re_solve>
				<time_stepper type="default">
					<max_retries>5</max_retries>
					<opt_iter>10</opt_iter>
					<dtmin>0.01</dtmin>
					<dtmax>0.1</dtmax>
					<aggressiveness>0</aggressiveness>
					<cutback>0.5</cutback>
					<dtforce>0</dtforce>
				</time_stepper>
				<solver type="multiphasic">
					<symmetric_stiffness>non-symmetric</symmetric_stiffness>
					<equation_scheme>staggered</equation_scheme>
					<equation_order>default</equation_order>
					<optimize_bw>0</optimize_bw>
					<lstol>0.9</lstol>
					<lsmin>0.01</lsmin>
					<lsiter>5</lsiter>
					<max_refs>15</max_refs>
					<check_zero_diagonal>0</check_zero_diagonal>
					<zero_diagonal_tol>0</zero_diagonal_tol>
					<force_partition>0</force_partition>
					<reform_each_time_step>1</reform_each_time_step>
					<reform_augment>0</reform_augment>
					<diverge_reform>1</diverge_reform>
					<min_residual>1e-20</min_residual>
					<max_residual>0</max_residual>
					<dtol>0.001</dtol>
					<etol>0.01</etol>
					<rtol>0</rtol>
					<rhoi>-2</rhoi>
					<alpha>1</alpha>
					<beta>0.25</beta>
					<gamma>0.5</gamma>
					<logSolve>0</logSolve>
					<arc_length>0</arc_length>
					<arc_length_scale>0</arc_length_scale>
					<ptol>0.01</ptol>
					<ctol>0.01</ctol>
					<force_positive_concentrations>1</force_positive_concentrations>
					<qn_method type="Broyden">
						<max_ups>0</max_ups>
						<max_buffer_size>0</max_buffer_size>
						<cycle_buffer>1</cycle_buffer>
						<cmax>100000</cmax>
					</qn_method>
				</solver>
			</Control>
			<Rigid>
				<rigid_bc name="RigidDisplacement32" type="rigid_displacement">
					<rb>Platen</rb>
					<dof>z</dof>
					<value lc="6">1</value>
					<relative>0</relative>
				</rigid_bc>
			</Rigid>
		</step>
		<step id="2" name="Step02 Transient">
			<Control>
				<analysis>TRANSIENT</analysis>
				<time_steps>72000</time_steps>
				<step_size>0.1</step_size>
				<plot_zero_state>0</plot_zero_state>
				<plot_range>0,-1</plot_range>
				<plot_level>PLOT_MAJOR_ITRS</plot_level>
				<output_level>OUTPUT_MAJOR_ITRS</output_level>
				<plot_stride>1</plot_stride>
				<adaptor_re_solve>1</adaptor_re_solve>
				<time_stepper type="default">
					<max_retries>5</max_retries>
					<opt_iter>10</opt_iter>
					<dtmin>0.01</dtmin>
					<dtmax lc="1">0</dtmax>
					<aggressiveness>0</aggressiveness>
					<cutback>0.5</cutback>
					<dtforce>0</dtforce>
				</time_stepper>
				<solver type="multiphasic">
					<symmetric_stiffness>non-symmetric</symmetric_stiffness>
					<equation_scheme>staggered</equation_scheme>
					<equation_order>default</equation_order>
					<optimize_bw>0</optimize_bw>
					<lstol>0.9</lstol>
					<lsmin>0.01</lsmin>
					<lsiter>5</lsiter>
					<max_refs>25</max_refs>
					<check_zero_diagonal>0</check_zero_diagonal>
					<zero_diagonal_tol>0</zero_diagonal_tol>
					<force_partition>0</force_partition>
					<reform_each_time_step>1</reform_each_time_step>
					<reform_augment>0</reform_augment>
					<diverge_reform>1</diverge_reform>
					<min_residual>1e-20</min_residual>
					<max_residual>0</max_residual>
					<dtol>0.001</dtol>
					<etol>0.01</etol>
					<rtol>0</rtol>
					<rhoi>-2</rhoi>
					<alpha>1</alpha>
					<beta>0.25</beta>
					<gamma>0.5</gamma>
					<logSolve>0</logSolve>
					<arc_length>0</arc_length>
					<arc_length_scale>0</arc_length_scale>
					<ptol>0.01</ptol>
					<ctol>0.01</ctol>
					<force_positive_concentrations>1</force_positive_concentrations>
					<qn_method type="Broyden">
						<max_ups>0</max_ups>
						<max_buffer_size>0</max_buffer_size>
						<cycle_buffer>1</cycle_buffer>
						<cmax>100000</cmax>
					</qn_method>
				</solver>
			</Control>
			<Rigid>
				<rigid_load name="RigidForce03" type="rigid_force">
					<rb>Platen</rb>
					<dof>Rz</dof>
					<value lc="7">1</value>
					<load_type>LOAD</load_type>
					<relative>0</relative>
				</rigid_load>
			</Rigid>
		</step>
	</Step>
	<LoadData>
		<load_controller id="1" name="LC1" type="loadcurve">
			<interpolate>STEP</interpolate>
			<extend>CONSTANT</extend>
			<points>
				<pt>0,0</pt>
				<pt>1.1,0.1</pt>
				<pt>1.5,0.1</pt>
				<pt>2,0.1</pt>
				<pt>10,1</pt>
				<pt>100,10</pt>
				<pt>1000,100</pt>
				<pt>10000,1000</pt>
			</points>
		</load_controller>
		<load_controller id="2" name="LC2" type="loadcurve">
			<interpolate>SMOOTH</interpolate>
			<extend>CONSTANT</extend>
			<points>
				<pt>0,0</pt>
				<pt>1,-200</pt>
			</points>
		</load_controller>
		<load_controller id="3" name="LC3" type="loadcurve">
			<interpolate>STEP</interpolate>
			<extend>CONSTANT</extend>
			<points>
				<pt>0,0</pt>
				<pt>1,-0.7732</pt>
			</points>
		</load_controller>
		<load_controller id="4" name="LC4" type="loadcurve">
			<interpolate>STEP</interpolate>
			<extend>CONSTANT</extend>
			<points>
				<pt>0,0</pt>
				<pt>1,150</pt>
			</points>
		</load_controller>
		<load_controller id="5" name="LC5" type="loadcurve">
			<interpolate>STEP</interpolate>
			<extend>CONSTANT</extend>
			<points>
				<pt>0,0</pt>
				<pt>1,150</pt>
			</points>
		</load_controller>
		<load_controller id="6" name="LC6" type="loadcurve">
			<interpolate>LINEAR</interpolate>
			<extend>CONSTANT</extend>
			<points>
				<pt>0,0</pt>
				<pt>1,0</pt>
			</points>
		</load_controller>
		<load_controller id="7" name="LC7" type="loadcurve">
			<interpolate>STEP</interpolate>
			<extend>CONSTANT</extend>
			<points>
				<pt>0,0</pt>
				<pt>1,-0.471</pt>
			</points>
		</load_controller>
	</LoadData>
	<Output>
		<plotfile type="febio">
			<var type="contact gap"/>
			<var type="contact pressure"/>
			<var type="current density"/>
			<var type="displacement"/>
			<var type="reaction forces"/>
			<var type="relative volume"/>
			<var type="stress"/>
			<var type="effective fluid pressure"/>
			<var type="fluid pressure"/>
			<var type="fluid flux"/>
			<var type="effective solute concentration"/>
			<var type="electric potential"/>
			<var type="fixed charge density"/>
			<var type="solute concentration"/>
			<var type="solute flux"/>
		</plotfile>
		<logfile>
			<element_data data="sx" elem_set="unnamed_set01"/>
		</logfile>
	</Output>
</febio_spec>
