<?xml version="1.0" encoding="ISO-8859-1"?>
<febio_spec version="4.0">
	<Module type="multiphasic"/>
	<Control>
		<analysis>TRANSIENT</analysis>
		<time_steps>150</time_steps>
		<step_size>0.1</step_size>
		<plot_zero_state>0</plot_zero_state>
		<plot_range>0,-1</plot_range>
		<plot_level>PLOT_MAJOR_ITRS</plot_level>
		<output_level>OUTPUT_MAJOR_ITRS</output_level>
		<plot_stride>1</plot_stride>
		<adaptor_re_solve>1</adaptor_re_solve>
		<time_stepper type="default">
			<max_retries>10</max_retries>
			<opt_iter>25</opt_iter>
			<dtmin>0.01</dtmin>
			<dtmax>0.1</dtmax>
			<aggressiveness>0</aggressiveness>
			<cutback>0.5</cutback>
			<dtforce>0</dtforce>
		</time_stepper>
		<solver type="multiphasic">
			<symmetric_stiffness>non-symmetric</symmetric_stiffness>
			<equation_scheme>staggered</equation_scheme>
			<equation_order>default</equation_order>
			<optimize_bw>0</optimize_bw>
			<lstol>0.9</lstol>
			<lsmin>0.01</lsmin>
			<lsiter>5</lsiter>
			<max_refs>25</max_refs>
			<check_zero_diagonal>0</check_zero_diagonal>
			<zero_diagonal_tol>0</zero_diagonal_tol>
			<force_partition>0</force_partition>
			<reform_each_time_step>1</reform_each_time_step>
			<reform_augment>0</reform_augment>
			<diverge_reform>1</diverge_reform>
			<min_residual>1e-20</min_residual>
			<max_residual>0</max_residual>
			<dtol>0</dtol>
			<etol>0.01</etol>
			<rtol>0</rtol>
			<rhoi>-2</rhoi>
			<alpha>1</alpha>
			<beta>0.25</beta>
			<gamma>0.5</gamma>
			<logSolve>0</logSolve>
			<arc_length>0</arc_length>
			<arc_length_scale>0</arc_length_scale>
			<ptol>0</ptol>
			<ctol>0.01</ctol>
			<force_positive_concentrations>1</force_positive_concentrations>
			<qn_method type="Broyden">
				<max_ups>0</max_ups>
				<max_buffer_size>0</max_buffer_size>
				<cycle_buffer>1</cycle_buffer>
				<cmax>100000</cmax>
			</qn_method>
		</solver>
	</Control>
	<Globals>
		<Constants>
			<T>310</T>
			<R>8.314e-06</R>
			<Fc>0</Fc>
		</Constants>
		<Solutes>
			<solute id="1" name="solute1">
				<charge_number>0</charge_number>
				<molar_mass>1</molar_mass>
				<density>1</density>
			</solute>
		</Solutes>
	</Globals>
	<Material>
		<material id="1" name="Material1" type="multiphasic">
			<phi0>0</phi0>
			<fluid_density>0</fluid_density>
			<penalty>1</penalty>
			<fixed_charge_density>0</fixed_charge_density>
			<solid type="neo-Hookean">
				<density>1</density>
				<E>100</E>
				<v>0</v>
			</solid>
			<permeability type="perm-const-iso">
				<perm>1</perm>
			</permeability>
			<osmotic_coefficient type="osm-coef-const">
				<osmcoef>1</osmcoef>
			</osmotic_coefficient>
			<solute sol="solute1">
				<diffusivity type="diff-const-iso">
					<free_diff>0.001</free_diff>
					<diff>0.001</diff>
				</diffusivity>
				<solubility type="solub-const">
					<solub>1</solub>
				</solubility>
			</solute>
		</material>
	</Material>
	<Mesh>
		<Nodes name="Object3">
			<node id="1">-5,-0.25,0</node>
			<node id="2">5,-0.25,0</node>
			<node id="3">5,0.25,0</node>
			<node id="4">-5,0.25,0</node>
			<node id="5">-5,-0.25,0.5</node>
			<node id="6">5,-0.25,0.5</node>
			<node id="7">5,0.25,0.5</node>
			<node id="8">-5,0.25,0.5</node>
			<node id="9">-4.95,-0.25,0</node>
			<node id="10">-4.9,-0.25,0</node>
			<node id="11">-4.85,-0.25,0</node>
			<node id="12">-4.8,-0.25,0</node>
			<node id="13">-4.75,-0.25,0</node>
			<node id="14">-4.7,-0.25,0</node>
			<node id="15">-4.65,-0.25,0</node>
			<node id="16">-4.6,-0.25,0</node>
			<node id="17">-4.55,-0.25,0</node>
			<node id="18">-4.5,-0.25,0</node>
			<node id="19">-4.45,-0.25,0</node>
			<node id="20">-4.4,-0.25,0</node>
<!-- ... 800 like lines cut -->
		</Nodes>
		<Elements type="hex8" name="Part3">
			<elem id="1">14,15,599,600,401,400,612,611</elem>
			<elem id="2">15,16,598,599,400,399,613,612</elem>
			<elem id="3">16,17,597,598,399,398,614,613</elem>
			<elem id="4">17,18,596,597,398,397,615,614</elem>
			<elem id="5">18,19,595,596,397,396,616,615</elem>
			<elem id="6">19,20,594,595,396,395,617,616</elem>
			<elem id="7">20,21,593,594,395,394,618,617</elem>
			<elem id="8">21,22,592,593,394,393,619,618</elem>
			<elem id="9">22,23,591,592,393,392,620,619</elem>
			<elem id="10">23,24,590,591,392,391,621,620</elem>
			<elem id="11">24,25,589,590,391,390,622,621</elem>
			<elem id="12">25,26,588,589,390,389,623,622</elem>
			<elem id="13">26,27,587,588,389,388,624,623</elem>
			<elem id="14">27,28,586,587,388,387,625,624</elem>
			<elem id="15">28,29,585,586,387,386,626,625</elem>
			<elem id="16">29,30,584,585,386,385,627,626</elem>
			<elem id="17">30,31,583,584,385,384,628,627</elem>
			<elem id="18">31,32,582,583,384,383,629,628</elem>
			<elem id="19">32,33,581,582,383,382,630,629</elem>
			<elem id="20">33,34,580,581,382,381,631,630</elem>
<!-- ... 178 like lines cut -->
		</Elements>
		<Elements type="hex8" name="Part4">
			<elem id="199">1,9,605,4,5,406,606,8</elem>
			<elem id="200">9,10,604,605,406,405,607,606</elem>
			<elem id="201">10,11,603,604,405,404,608,607</elem>
			<elem id="202">11,12,602,603,404,403,609,608</elem>
			<elem id="203">12,13,601,602,403,402,610,609</elem>
			<elem id="204">13,14,600,601,402,401,611,610</elem>
		</Elements>
		<NodeSet name="InitialEffectiveConcentration1">
			1, 4, 5, 8, 9, 10, 11, 12,
			13, 14, 401, 402, 403, 404, 405, 406,
			600, 601, 602, 603, 604, 605, 606, 607,
			608, 609, 610, 611
		</NodeSet>
		<Surface name="FixedDisplacement1">
			<quad4 id="1">4,1,5,8</quad4>
			<quad4 id="2">2,3,7,6</quad4>
		</Surface>
		<Surface name="FixedDisplacement2">
			<quad4 id="1">1,9,406,5</quad4>
			<quad4 id="2">9,10,405,406</quad4>
			<quad4 id="3">10,11,404,405</quad4>
			<quad4 id="4">11,12,403,404</quad4>
			<quad4 id="5">12,13,402,403</quad4>
			<quad4 id="6">13,14,401,402</quad4>
			<quad4 id="7">605,4,8,606</quad4>
			<quad4 id="8">604,605,606,607</quad4>
			<quad4 id="9">603,604,607,608</quad4>
			<quad4 id="10">602,603,608,609</quad4>
			<quad4 id="11">601,602,609,610</quad4>
			<quad4 id="12">600,601,610,611</quad4>
			<quad4 id="13">14,15,400,401</quad4>
			<quad4 id="14">15,16,399,400</quad4>
			<quad4 id="15">16,17,398,399</quad4>
			<quad4 id="16">17,18,397,398</quad4>
			<quad4 id="17">18,19,396,397</quad4>
			<quad4 id="18">19,20,395,396</quad4>
			<quad4 id="19">20,21,394,395</quad4>
			<quad4 id="20">21,22,393,394</quad4>
<!-- ... 388 like lines cut -->
		</Surface>
		<Surface name="FixedDisplacement3">
			<quad4 id="1">4,605,9,1</quad4>
			<quad4 id="2">605,604,10,9</quad4>
			<quad4 id="3">604,603,11,10</quad4>
			<quad4 id="4">603,602,12,11</quad4>
			<quad4 id="5">602,601,13,12</quad4>
			<quad4 id="6">601,600,14,13</quad4>
			<quad4 id="7">5,406,606,8</quad4>
			<quad4 id="8">406,405,607,606</quad4>
			<quad4 id="9">405,404,608,607</quad4>
			<quad4 id="10">404,403,609,608</quad4>
			<quad4 id="11">403,402,610,609</quad4>
			<quad4 id="12">402,401,611,610</quad4>
			<quad4 id="13">600,599,15,14</quad4>
			<quad4 id="14">599,598,16,15</quad4>
			<quad4 id="15">598,597,17,16</quad4>
			<quad4 id="16">597,596,18,17</quad4>
			<quad4 id="17">596,595,19,18</quad4>
			<quad4 id="18">595,594,20,19</quad4>
			<quad4 id="19">594,593,21,20</quad4>
			<quad4 id="20">593,592,22,21</quad4>
<!-- ... 388 like lines cut -->
		</Surface>
		<Surface name="SoluteNaturalFlux1">
			<quad4 id="1">2,3,7,6</quad4>
		</Surface>
		<Surface name="FluidVolumetricFlowRate1">
			<quad4 id="1">4,1,5,8</quad4>
		</Surface>
		<Surface name="FluidPressure3">
			<quad4 id="1">2,3,7,6</quad4>
		</Surface>
	</Mesh>
	<MeshDomains>
		<SolidDomain name="Part3" mat="Material1"/>
		<SolidDomain name="Part4" mat="Material1"/>
	</MeshDomains>
	<Boundary>
		<bc name="FixedDisplacement1" node_set="@surface:FixedDisplacement1" type="zero displacement">
			<x_dof>1</x_dof>
			<y_dof>0</y_dof>
			<z_dof>0</z_dof>
		</bc>
		<bc name="FixedDisplacement2" node_set="@surface:FixedDisplacement2" type="zero displacement">
			<x_dof>0</x_dof>
			<y_dof>1</y_dof>
			<z_dof>0</z_dof>
		</bc>
		<bc name="FixedDisplacement3" node_set="@surface:FixedDisplacement3" type="zero displacement">
			<x_dof>0</x_dof>
			<y_dof>0</y_dof>
			<z_dof>1</z_dof>
		</bc>
	</Boundary>
	<Loads>
		<surface_load name="SoluteNaturalFlux1" surface="SoluteNaturalFlux1" type="solute natural flux">
			<shell_bottom>0</shell_bottom>
			<solute_id>solute1</solute_id>
			<update>1</update>
		</surface_load>
		<surface_load name="FluidVolumetricFlowRate1" surface="FluidVolumetricFlowRate1" type="fluidflux">
			<flux lc="1">-1</flux>
			<linear>0</linear>
			<shell_bottom>0</shell_bottom>
			<mixture>0</mixture>
		</surface_load>
		<surface_load name="FluidPressure3" surface="FluidPressure3" type="fluid pressure">
			<pressure>0</pressure>
		</surface_load>
	</Loads>
	<Initial>
		<ic name="InitialEffectiveConcentration1" node_set="InitialEffectiveConcentration1" type="initial concentration">
			<dof>c1</dof>
			<value>1</value>
		</ic>
	</Initial>
	<LoadData>
		<load_controller id="1" name="LC1" type="loadcurve">
			<interpolate>SMOOTH</interpolate>
			<extend>CONSTANT</extend>
			<points>
				<pt>0,0</pt>
				<pt>1,1</pt>
			</points>
		</load_controller>
	</LoadData>
	<Output>
		<plotfile type="febio">
			<var type="displacement"/>
			<var type="stress"/>
			<var type="relative volume"/>
			<var type="solid stress"/>
			<var type="fluid flux"/>
			<var type="effective fluid pressure"/>
			<var type="effective solute concentration"/>
			<var type="solute concentration"/>
			<var type="solute flux"/>
			<var type="fluid pressure"/>
		</plotfile>
	</Output>
</febio_spec>
