<?xml version="1.0" encoding="ISO-8859-1"?>
<!--
Multistep and dynamic analysis.  A spring attaches two rigid plates.  The upper
plate is fixed and the lower plate is allowed to fall with gravity from time t=0
to t=1.  It then detaches from the spring, which is allowed to recoil dynamically.
-->
<febio_spec version="4.0">
	<Module type="solid"/>
	<Globals>
		<Constants>
			<T>0</T>
			<R>0</R>
			<Fc>0</Fc>
		</Constants>
	</Globals>
	<Material>
		<material id="1" name="fixed" type="rigid body">
			<density>1</density>
			<E>1</E>
			<v>0</v>
		</material>
		<material id="2" name="moving" type="rigid body">
			<density>1</density>
			<E>1</E>
			<v>0</v>
		</material>
		<material id="3" name="spring" type="neo-Hookean">
			<density>1</density>
			<E>2000000</E>
			<v>0</v>
		</material>
	</Material>
	<Mesh>
		<Nodes name="Object01">
			<node id="1">-0.5,-0.5,0</node>
			<node id="2">-0.5,-0.5,0.1</node>
			<node id="3">-0.5,0.5,0</node>
			<node id="4">-0.5,0.5,0.1</node>
			<node id="5">0.5,-0.5,0</node>
			<node id="6">0.5,-0.5,0.1</node>
			<node id="7">0.5,0.5,0</node>
			<node id="8">0.5,0.5,0.1</node>
			<node id="9">0.45,0,-1.5495946</node>
			<node id="10">0.5,0,-1.5495946</node>
			<node id="11">0.45,0,-1.4995946</node>
			<node id="12">0.5,0,-1.4995946</node>
			<node id="13">0.44372277,-0.074900608,-1.5462501</node>
			<node id="14">0.4930253,-0.083222898,-1.5462501</node>
			<node id="15">0.44372277,-0.074900608,-1.4962501</node>
			<node id="16">0.4930253,-0.083222898,-1.4962501</node>
			<node id="17">0.42506622,-0.14771158,-1.5429056</node>
			<node id="18">0.4722958,-0.16412398,-1.5429056</node>
			<node id="19">0.42506622,-0.14771158,-1.4929056</node>
			<node id="20">0.4722958,-0.16412398,-1.4929056</node>
<!-- ... 1276 like lines cut -->
		</Nodes>
		<Elements type="hex8" name="Part4">
			<elem id="1">1,5,7,3,2,6,8,4</elem>
		</Elements>
		<Elements type="hex8" name="Part5">
			<elem id="2">1289,1293,1295,1291,1290,1294,1296,1292</elem>
		</Elements>
		<Elements type="hex8" name="Part6">
			<elem id="3">9,10,12,11,13,14,16,15</elem>
			<elem id="4">13,14,16,15,17,18,20,19</elem>
			<elem id="5">17,18,20,19,21,22,24,23</elem>
			<elem id="6">21,22,24,23,25,26,28,27</elem>
			<elem id="7">25,26,28,27,29,30,32,31</elem>
			<elem id="8">29,30,32,31,33,34,36,35</elem>
			<elem id="9">33,34,36,35,37,38,40,39</elem>
			<elem id="10">37,38,40,39,41,42,44,43</elem>
			<elem id="11">41,42,44,43,45,46,48,47</elem>
			<elem id="12">45,46,48,47,49,50,52,51</elem>
			<elem id="13">49,50,52,51,53,54,56,55</elem>
			<elem id="14">53,54,56,55,57,58,60,59</elem>
			<elem id="15">57,58,60,59,61,62,64,63</elem>
			<elem id="16">61,62,64,63,65,66,68,67</elem>
			<elem id="17">65,66,68,67,69,70,72,71</elem>
			<elem id="18">69,70,72,71,73,74,76,75</elem>
			<elem id="19">73,74,76,75,77,78,80,79</elem>
			<elem id="20">77,78,80,79,81,82,84,83</elem>
			<elem id="21">81,82,84,83,85,86,88,87</elem>
			<elem id="22">85,86,88,87,89,90,92,91</elem>
<!-- ... 299 like lines cut -->
		</Elements>
		<NodeSet name="RigidNodeset 1">
			1245, 1246, 1247, 1248
		</NodeSet>
		<NodeSet name="RigidNodeset 2">
			1285, 1286, 1287, 1288
		</NodeSet>
		<ElementSet name="unnamed_set01">
			307
		</ElementSet>
	</Mesh>
	<MeshDomains>
		<SolidDomain name="Part4" mat="fixed"/>
		<SolidDomain name="Part5" mat="moving"/>
		<SolidDomain name="Part6" mat="spring"/>
	</MeshDomains>
	<Boundary>
		<bc name="RigidInterface01" node_set="RigidNodeset 1" type="rigid">
			<rb>fixed</rb>
			<clamp_shells>1</clamp_shells>
		</bc>
	</Boundary>
	<Rigid>
		<rigid_bc name="RigidFixed73" type="rigid_fixed">
			<rb>fixed</rb>
			<Rx_dof>1</Rx_dof>
			<Ry_dof>1</Ry_dof>
			<Rz_dof>1</Rz_dof>
			<Ru_dof>1</Ru_dof>
			<Rv_dof>1</Rv_dof>
			<Rw_dof>1</Rw_dof>
		</rigid_bc>
		<rigid_bc name="RigidFixed74" type="rigid_fixed">
			<rb>moving</rb>
			<Rx_dof>1</Rx_dof>
			<Ry_dof>1</Ry_dof>
			<Rz_dof>0</Rz_dof>
			<Ru_dof>1</Ru_dof>
			<Rv_dof>1</Rv_dof>
			<Rw_dof>1</Rw_dof>
		</rigid_bc>
	</Rigid>
	<Loads>
		<body_load type="const">
			<x lc="1">0</x>
			<y lc="2">0</y>
			<z lc="3">1</z>
		</body_load>
	</Loads>
	<Step>
		<step id="1" name="Step01">
			<Control>
				<analysis>DYNAMIC</analysis>
				<time_steps>20</time_steps>
				<step_size>0.05</step_size>
				<plot_zero_state>0</plot_zero_state>
				<plot_range>0,-1</plot_range>
				<plot_level>PLOT_MAJOR_ITRS</plot_level>
				<output_level>OUTPUT_MAJOR_ITRS</output_level>
				<plot_stride>1</plot_stride>
				<adaptor_re_solve>1</adaptor_re_solve>
				<solver type="solid">
					<symmetric_stiffness>symmetric</symmetric_stiffness>
					<equation_scheme>staggered</equation_scheme>
					<equation_order>default</equation_order>
					<optimize_bw>0</optimize_bw>
					<lstol>0.9</lstol>
					<lsmin>0.01</lsmin>
					<lsiter>5</lsiter>
					<max_refs>15</max_refs>
					<check_zero_diagonal>0</check_zero_diagonal>
					<zero_diagonal_tol>0</zero_diagonal_tol>
					<force_partition>0</force_partition>
					<reform_each_time_step>1</reform_each_time_step>
					<reform_augment>0</reform_augment>
					<diverge_reform>1</diverge_reform>
					<min_residual>1e-20</min_residual>
					<max_residual>0</max_residual>
					<dtol>0.001</dtol>
					<etol>0.01</etol>
					<rtol>0</rtol>
					<rhoi>-2</rhoi>
					<alpha>1</alpha>
					<beta>0.25</beta>
					<gamma>0.5</gamma>
					<logSolve>0</logSolve>
					<arc_length>0</arc_length>
					<arc_length_scale>0</arc_length_scale>
					<qn_method type="BFGS">
						<max_ups>10</max_ups>
						<max_buffer_size>0</max_buffer_size>
						<cycle_buffer>1</cycle_buffer>
						<cmax>100000</cmax>
					</qn_method>
				</solver>
			</Control>
			<Boundary>
				<bc name="RigidInterface02" node_set="RigidNodeset 2" type="rigid">
					<rb>moving</rb>
					<clamp_shells>1</clamp_shells>
				</bc>
			</Boundary>
		</step>
		<step id="2" name="Step02">
			<Control>
				<analysis>DYNAMIC</analysis>
				<time_steps>20</time_steps>
				<step_size>0.05</step_size>
				<plot_zero_state>0</plot_zero_state>
				<plot_range>0,-1</plot_range>
				<plot_level>PLOT_MAJOR_ITRS</plot_level>
				<output_level>OUTPUT_MAJOR_ITRS</output_level>
				<plot_stride>1</plot_stride>
				<adaptor_re_solve>1</adaptor_re_solve>
				<solver type="solid">
					<symmetric_stiffness>symmetric</symmetric_stiffness>
					<equation_scheme>staggered</equation_scheme>
					<equation_order>default</equation_order>
					<optimize_bw>0</optimize_bw>
					<lstol>0.9</lstol>
					<lsmin>0.01</lsmin>
					<lsiter>5</lsiter>
					<max_refs>15</max_refs>
					<check_zero_diagonal>0</check_zero_diagonal>
					<zero_diagonal_tol>0</zero_diagonal_tol>
					<force_partition>0</force_partition>
					<reform_each_time_step>1</reform_each_time_step>
					<reform_augment>0</reform_augment>
					<diverge_reform>1</diverge_reform>
					<min_residual>1e-20</min_residual>
					<max_residual>0</max_residual>
					<dtol>0.001</dtol>
					<etol>0.01</etol>
					<rtol>0</rtol>
					<rhoi>-2</rhoi>
					<alpha>1</alpha>
					<beta>0.25</beta>
					<gamma>0.5</gamma>
					<logSolve>0</logSolve>
					<arc_length>0</arc_length>
					<arc_length_scale>0</arc_length_scale>
					<qn_method type="BFGS">
						<max_ups>10</max_ups>
						<max_buffer_size>0</max_buffer_size>
						<cycle_buffer>1</cycle_buffer>
						<cmax>100000</cmax>
					</qn_method>
				</solver>
			</Control>
		</step>
	</Step>
	<LoadData>
		<load_controller id="1" name="LC1" type="loadcurve">
			<interpolate>SMOOTH</interpolate>
			<extend>CONSTANT</extend>
			<points>
				<pt>0,0</pt>
				<pt>1,1</pt>
			</points>
		</load_controller>
		<load_controller id="2" name="LC2" type="loadcurve">
			<interpolate>SMOOTH</interpolate>
			<extend>CONSTANT</extend>
			<points>
				<pt>0,0</pt>
				<pt>1,1</pt>
			</points>
		</load_controller>
		<load_controller id="3" name="LC3" type="loadcurve">
			<interpolate>LINEAR</interpolate>
			<extend>CONSTANT</extend>
			<points>
				<pt>0,1</pt>
				<pt>2,1</pt>
			</points>
		</load_controller>
	</LoadData>
	<Output>
		<plotfile type="febio">
			<var type="displacement"/>
			<var type="stress"/>
		</plotfile>
		<logfile>
			<element_data data="sz" elem_set="unnamed_set01"/>
		</logfile>
	</Output>
</febio_spec>
