<?xml version="1.0" encoding="ISO-8859-1"?>
<!--
A elastic block is stretched 1 unit in the xdirection to time t = 1 and then allowed
to recoil dynamically to time t = 5.  This example illustrates the use of a fixed
boundary condition inside a multistep analysis.
-->
<febio_spec version="4.0">
	<Module type="solid"/>
	<Globals>
		<Constants>
			<T>0</T>
			<R>0</R>
			<Fc>0</Fc>
		</Constants>
	</Globals>
	<Material>
		<material id="1" name="Material1" type="neo-Hookean">
			<density>1</density>
			<E>1</E>
			<v>0.3</v>
		</material>
	</Material>
	<Mesh>
		<Nodes name="Object01">
			<node id="1">-0.5,-0.5,0</node>
			<node id="2">-0.5,-0.5,0.25</node>
			<node id="3">-0.5,-0.5,0.5</node>
			<node id="4">-0.5,-0.5,0.75</node>
			<node id="5">-0.5,-0.5,1</node>
			<node id="6">-0.5,-0.25,0</node>
			<node id="7">-0.5,-0.25,0.25</node>
			<node id="8">-0.5,-0.25,0.5</node>
			<node id="9">-0.5,-0.25,0.75</node>
			<node id="10">-0.5,-0.25,1</node>
			<node id="11">-0.5,0,0</node>
			<node id="12">-0.5,0,0.25</node>
			<node id="13">-0.5,0,0.5</node>
			<node id="14">-0.5,0,0.75</node>
			<node id="15">-0.5,0,1</node>
			<node id="16">-0.5,0.25,0</node>
			<node id="17">-0.5,0.25,0.25</node>
			<node id="18">-0.5,0.25,0.5</node>
			<node id="19">-0.5,0.25,0.75</node>
			<node id="20">-0.5,0.25,1</node>
<!-- ... 105 like lines cut -->
		</Nodes>
		<Elements type="hex8" name="Part1">
			<elem id="1">1,26,31,6,2,27,32,7</elem>
			<elem id="2">2,27,32,7,3,28,33,8</elem>
			<elem id="3">3,28,33,8,4,29,34,9</elem>
			<elem id="4">4,29,34,9,5,30,35,10</elem>
			<elem id="5">6,31,36,11,7,32,37,12</elem>
			<elem id="6">7,32,37,12,8,33,38,13</elem>
			<elem id="7">8,33,38,13,9,34,39,14</elem>
			<elem id="8">9,34,39,14,10,35,40,15</elem>
			<elem id="9">11,36,41,16,12,37,42,17</elem>
			<elem id="10">12,37,42,17,13,38,43,18</elem>
			<elem id="11">13,38,43,18,14,39,44,19</elem>
			<elem id="12">14,39,44,19,15,40,45,20</elem>
			<elem id="13">16,41,46,21,17,42,47,22</elem>
			<elem id="14">17,42,47,22,18,43,48,23</elem>
			<elem id="15">18,43,48,23,19,44,49,24</elem>
			<elem id="16">19,44,49,24,20,45,50,25</elem>
			<elem id="17">26,51,56,31,27,52,57,32</elem>
			<elem id="18">27,52,57,32,28,53,58,33</elem>
			<elem id="19">28,53,58,33,29,54,59,34</elem>
			<elem id="20">29,54,59,34,30,55,60,35</elem>
<!-- ... 44 like lines cut -->
		</Elements>
		<NodeSet name="fixed2">
			101, 102, 103, 104, 105, 106, 107, 108,
			109, 110, 111, 112, 113, 114, 115, 116,
			117, 118, 119, 120, 121, 122, 123, 124,
			125
		</NodeSet>
		<NodeSet name="prescribed">
			101, 102, 103, 104, 105, 106, 107, 108,
			109, 110, 111, 112, 113, 114, 115, 116,
			117, 118, 119, 120, 121, 122, 123, 124,
			125
		</NodeSet>
		<NodeSet name="fixed">
			1, 2, 3, 4, 5, 6, 7, 8,
			9, 10, 11, 12, 13, 14, 15, 16,
			17, 18, 19, 20, 21, 22, 23, 24,
			25
		</NodeSet>
		<NodeSet name="unnamed_set01">
			25
		</NodeSet>
	</Mesh>
	<MeshDomains>
		<SolidDomain name="Part1" mat="Material1"/>
	</MeshDomains>
	<Boundary>
		<bc name="FixedDisplacement01" node_set="fixed2" type="zero displacement">
			<x_dof>0</x_dof>
			<y_dof>1</y_dof>
			<z_dof>1</z_dof>
		</bc>
		<bc name="prescribed" node_set="prescribed" type="prescribed displacement">
			<dof>x</dof>
			<value lc="1">1</value>
			<relative>0</relative>
		</bc>
	</Boundary>
	<Step>
		<step id="1" name="Step01">
			<Control>
				<analysis>STATIC</analysis>
				<time_steps>10</time_steps>
				<step_size>0.1</step_size>
				<plot_zero_state>0</plot_zero_state>
				<plot_range>0,-1</plot_range>
				<plot_level>PLOT_MAJOR_ITRS</plot_level>
				<output_level>OUTPUT_MAJOR_ITRS</output_level>
				<plot_stride>1</plot_stride>
				<adaptor_re_solve>1</adaptor_re_solve>
				<time_stepper type="default">
					<max_retries>5</max_retries>
					<opt_iter>10</opt_iter>
					<dtmin>0.01</dtmin>
					<dtmax>0.1</dtmax>
					<aggressiveness>0</aggressiveness>
					<cutback>0.5</cutback>
					<dtforce>0</dtforce>
				</time_stepper>
				<solver type="solid">
					<symmetric_stiffness>symmetric</symmetric_stiffness>
					<equation_scheme>staggered</equation_scheme>
					<equation_order>default</equation_order>
					<optimize_bw>0</optimize_bw>
					<lstol>0.9</lstol>
					<lsmin>0.01</lsmin>
					<lsiter>5</lsiter>
					<max_refs>15</max_refs>
					<check_zero_diagonal>0</check_zero_diagonal>
					<zero_diagonal_tol>0</zero_diagonal_tol>
					<force_partition>0</force_partition>
					<reform_each_time_step>1</reform_each_time_step>
					<reform_augment>0</reform_augment>
					<diverge_reform>1</diverge_reform>
					<min_residual>1e-20</min_residual>
					<max_residual>0</max_residual>
					<dtol>0.001</dtol>
					<etol>0.01</etol>
					<rtol>0</rtol>
					<rhoi>-2</rhoi>
					<alpha>1</alpha>
					<beta>0.25</beta>
					<gamma>0.5</gamma>
					<logSolve>0</logSolve>
					<arc_length>0</arc_length>
					<arc_length_scale>0</arc_length_scale>
					<qn_method type="BFGS">
						<max_ups>10</max_ups>
						<max_buffer_size>0</max_buffer_size>
						<cycle_buffer>1</cycle_buffer>
						<cmax>100000</cmax>
					</qn_method>
				</solver>
			</Control>
			<Boundary>
				<bc name="FixedDisplacement02" node_set="fixed" type="zero displacement">
					<x_dof>1</x_dof>
					<y_dof>1</y_dof>
					<z_dof>1</z_dof>
				</bc>
			</Boundary>
		</step>
		<step id="2" name="Step02">
			<Control>
				<analysis>DYNAMIC</analysis>
				<time_steps>40</time_steps>
				<step_size>0.1</step_size>
				<plot_zero_state>0</plot_zero_state>
				<plot_range>0,-1</plot_range>
				<plot_level>PLOT_MAJOR_ITRS</plot_level>
				<output_level>OUTPUT_MAJOR_ITRS</output_level>
				<plot_stride>1</plot_stride>
				<adaptor_re_solve>1</adaptor_re_solve>
				<time_stepper type="default">
					<max_retries>5</max_retries>
					<opt_iter>10</opt_iter>
					<dtmin>0.01</dtmin>
					<dtmax>0.1</dtmax>
					<aggressiveness>0</aggressiveness>
					<cutback>0.5</cutback>
					<dtforce>0</dtforce>
				</time_stepper>
				<solver type="solid">
					<symmetric_stiffness>symmetric</symmetric_stiffness>
					<equation_scheme>staggered</equation_scheme>
					<equation_order>default</equation_order>
					<optimize_bw>0</optimize_bw>
					<lstol>0.9</lstol>
					<lsmin>0.01</lsmin>
					<lsiter>5</lsiter>
					<max_refs>15</max_refs>
					<check_zero_diagonal>0</check_zero_diagonal>
					<zero_diagonal_tol>0</zero_diagonal_tol>
					<force_partition>0</force_partition>
					<reform_each_time_step>1</reform_each_time_step>
					<reform_augment>0</reform_augment>
					<diverge_reform>1</diverge_reform>
					<min_residual>1e-20</min_residual>
					<max_residual>0</max_residual>
					<dtol>0.001</dtol>
					<etol>0.01</etol>
					<rtol>0</rtol>
					<rhoi>-2</rhoi>
					<alpha>1</alpha>
					<beta>0.25</beta>
					<gamma>0.5</gamma>
					<logSolve>0</logSolve>
					<arc_length>0</arc_length>
					<arc_length_scale>0</arc_length_scale>
					<qn_method type="BFGS">
						<max_ups>10</max_ups>
						<max_buffer_size>0</max_buffer_size>
						<cycle_buffer>1</cycle_buffer>
						<cmax>100000</cmax>
					</qn_method>
				</solver>
			</Control>
		</step>
	</Step>
	<LoadData>
		<load_controller id="1" name="LC1" type="loadcurve">
			<interpolate>SMOOTH</interpolate>
			<extend>CONSTANT</extend>
			<points>
				<pt>0,0</pt>
				<pt>1,1</pt>
			</points>
		</load_controller>
	</LoadData>
	<Output>
		<plotfile type="febio">
			<var type="acceleration"/>
			<var type="displacement"/>
			<var type="stress"/>
			<var type="velocity"/>
		</plotfile>
		<logfile>
			<node_data data="ax" node_set="unnamed_set01"/>
		</logfile>
	</Output>
</febio_spec>
