<?xml version="1.0" encoding="ISO-8859-1"?>
<!--
Simulation of an engine with two cylinders and a prescribed rotation of 6.2 radians at
time t=62 on the crank.
-->
<febio_spec version="4.0">
	<Module type="solid"/>
	<Control>
		<analysis>STATIC</analysis>
		<time_steps>62</time_steps>
		<step_size>1</step_size>
		<plot_zero_state>0</plot_zero_state>
		<plot_range>0,-1</plot_range>
		<plot_level>PLOT_MAJOR_ITRS</plot_level>
		<output_level>OUTPUT_MAJOR_ITRS</output_level>
		<plot_stride>1</plot_stride>
		<adaptor_re_solve>1</adaptor_re_solve>
		<solver type="solid">
			<symmetric_stiffness>0</symmetric_stiffness>
			<equation_scheme>staggered</equation_scheme>
			<equation_order>default</equation_order>
			<optimize_bw>0</optimize_bw>
			<lstol>0.9</lstol>
			<lsmin>0.01</lsmin>
			<lsiter>5</lsiter>
			<max_refs>15</max_refs>
			<check_zero_diagonal>0</check_zero_diagonal>
			<zero_diagonal_tol>0</zero_diagonal_tol>
			<force_partition>0</force_partition>
			<reform_each_time_step>1</reform_each_time_step>
			<reform_augment>0</reform_augment>
			<diverge_reform>1</diverge_reform>
			<min_residual>1e-20</min_residual>
			<max_residual>0</max_residual>
			<dtol>0.001</dtol>
			<etol>0.01</etol>
			<rtol>0</rtol>
			<rhoi>-2</rhoi>
			<alpha>1</alpha>
			<beta>0.25</beta>
			<gamma>0.5</gamma>
			<logSolve>0</logSolve>
			<arc_length>0</arc_length>
			<arc_length_scale>0</arc_length_scale>
			<qn_method type="BFGS">
				<max_ups>10</max_ups>
				<max_buffer_size>0</max_buffer_size>
				<cycle_buffer>1</cycle_buffer>
				<cmax>100000</cmax>
			</qn_method>
		</solver>
	</Control>
	<Globals>
		<Constants>
			<T>0</T>
			<R>0</R>
			<Fc>0</Fc>
		</Constants>
	</Globals>
	<Material>
		<material id="1" name="chamber1" type="neo-Hookean">
			<density>1</density>
			<E>1</E>
			<v>0</v>
		</material>
		<material id="2" name="chamber2" type="neo-Hookean">
			<density>1</density>
			<E>1</E>
			<v>0</v>
		</material>
		<material id="3" name="shaft2" type="rigid body">
			<density>1</density>
			<E>1</E>
			<v>0</v>
		</material>
		<material id="4" name="shaft1" type="rigid body">
			<density>1</density>
			<E>1</E>
			<v>0</v>
		</material>
		<material id="5" name="crank" type="rigid body">
			<density>1</density>
			<E>1</E>
			<v>0</v>
			<center_of_mass>0,0,0</center_of_mass>
		</material>
		<material id="6" name="piston1" type="rigid body">
			<density>1</density>
			<E>1</E>
			<v>0</v>
		</material>
		<material id="7" name="piston2" type="rigid body">
			<density>1</density>
			<E>1</E>
			<v>0</v>
		</material>
	</Material>
	<Mesh>
		<Nodes name="Object01">
			<node id="1">0.04971844,-0.35355339,-0.35359309</node>
			<node id="2">0.04971844,-0.23570226,-0.35359309</node>
			<node id="3">0.04971844,-0.11785113,-0.35359309</node>
			<node id="4">0.04971844,1.399775e-09,-0.35359309</node>
			<node id="5">0.04971844,0.11785113,-0.35359309</node>
			<node id="6">0.04971844,0.23570226,-0.35359309</node>
			<node id="7">0.04971844,0.35355339,-0.35359309</node>
			<node id="8">0.049812288,-0.35355339,-0.235742</node>
			<node id="9">0.049812288,-0.23570226,-0.235742</node>
			<node id="10">0.049812288,-0.11785113,-0.235742</node>
			<node id="11">0.049812288,1.399775e-09,-0.235742</node>
			<node id="12">0.049812288,0.11785113,-0.235742</node>
			<node id="13">0.049812288,0.23570226,-0.235742</node>
			<node id="14">0.049812288,0.35355339,-0.235742</node>
			<node id="15">0.049906136,-0.35355339,-0.11789091</node>
			<node id="16">0.049906136,-0.23570226,-0.11789091</node>
			<node id="17">0.049906136,-0.11785113,-0.11789091</node>
			<node id="18">0.049906136,1.399775e-09,-0.11789091</node>
			<node id="19">0.049906136,0.11785113,-0.11789091</node>
			<node id="20">0.049906136,0.23570226,-0.11789091</node>
<!-- ... 7704 like lines cut -->
		</Nodes>
		<Elements type="hex8" name="Part11">
			<elem id="1">5602,5609,5610,5603,5795,5802,5803,5796</elem>
			<elem id="2">5603,5610,5611,5604,5796,5803,5804,5797</elem>
			<elem id="3">5604,5611,5612,5605,5797,5804,5805,5798</elem>
			<elem id="4">5605,5612,5613,5606,5798,5805,5806,5799</elem>
			<elem id="5">5606,5613,5614,5607,5799,5806,5807,5800</elem>
			<elem id="6">5607,5614,5615,5608,5800,5807,5808,5801</elem>
			<elem id="7">5609,5616,5617,5610,5802,5809,5810,5803</elem>
			<elem id="8">5610,5617,5618,5611,5803,5810,5811,5804</elem>
			<elem id="9">5611,5618,5619,5612,5804,5811,5812,5805</elem>
			<elem id="10">5612,5619,5620,5613,5805,5812,5813,5806</elem>
			<elem id="11">5613,5620,5621,5614,5806,5813,5814,5807</elem>
			<elem id="12">5614,5621,5622,5615,5807,5814,5815,5808</elem>
			<elem id="13">5616,5623,5624,5617,5809,5816,5817,5810</elem>
			<elem id="14">5617,5624,5625,5618,5810,5817,5818,5811</elem>
			<elem id="15">5618,5625,5626,5619,5811,5818,5819,5812</elem>
			<elem id="16">5619,5626,5627,5620,5812,5819,5820,5813</elem>
			<elem id="17">5620,5627,5628,5621,5813,5820,5821,5814</elem>
			<elem id="18">5621,5628,5629,5622,5814,5821,5822,5815</elem>
			<elem id="19">5623,5630,5631,5624,5816,5823,5824,5817</elem>
			<elem id="20">5624,5631,5632,5625,5817,5824,5825,5818</elem>
<!-- ... 1780 like lines cut -->
		</Elements>
		<Elements type="hex8" name="Part12">
			<elem id="1801">3479,3486,3487,3480,3672,3679,3680,3673</elem>
			<elem id="1802">3480,3487,3488,3481,3673,3680,3681,3674</elem>
			<elem id="1803">3481,3488,3489,3482,3674,3681,3682,3675</elem>
			<elem id="1804">3482,3489,3490,3483,3675,3682,3683,3676</elem>
			<elem id="1805">3483,3490,3491,3484,3676,3683,3684,3677</elem>
			<elem id="1806">3484,3491,3492,3485,3677,3684,3685,3678</elem>
			<elem id="1807">3486,3493,3494,3487,3679,3686,3687,3680</elem>
			<elem id="1808">3487,3494,3495,3488,3680,3687,3688,3681</elem>
			<elem id="1809">3488,3495,3496,3489,3681,3688,3689,3682</elem>
			<elem id="1810">3489,3496,3497,3490,3682,3689,3690,3683</elem>
			<elem id="1811">3490,3497,3498,3491,3683,3690,3691,3684</elem>
			<elem id="1812">3491,3498,3499,3492,3684,3691,3692,3685</elem>
			<elem id="1813">3493,3500,3501,3494,3686,3693,3694,3687</elem>
			<elem id="1814">3494,3501,3502,3495,3687,3694,3695,3688</elem>
			<elem id="1815">3495,3502,3503,3496,3688,3695,3696,3689</elem>
			<elem id="1816">3496,3503,3504,3497,3689,3696,3697,3690</elem>
			<elem id="1817">3497,3504,3505,3498,3690,3697,3698,3691</elem>
			<elem id="1818">3498,3505,3506,3499,3691,3698,3699,3692</elem>
			<elem id="1819">3500,3507,3508,3501,3693,3700,3701,3694</elem>
			<elem id="1820">3501,3508,3509,3502,3694,3701,3702,3695</elem>
<!-- ... 1780 like lines cut -->
		</Elements>
		<Elements type="hex8" name="Part13">
			<elem id="3601">3463,3467,3469,3465,3464,3468,3470,3466</elem>
		</Elements>
		<Elements type="hex8" name="Part14">
			<elem id="3602">3471,3475,3477,3473,3472,3476,3478,3474</elem>
		</Elements>
		<Elements type="hex8" name="Part15">
			<elem id="3603">1,8,9,2,194,201,202,195</elem>
			<elem id="3604">2,9,10,3,195,202,203,196</elem>
			<elem id="3605">3,10,11,4,196,203,204,197</elem>
			<elem id="3606">4,11,12,5,197,204,205,198</elem>
			<elem id="3607">5,12,13,6,198,205,206,199</elem>
			<elem id="3608">6,13,14,7,199,206,207,200</elem>
			<elem id="3609">8,15,16,9,201,208,209,202</elem>
			<elem id="3610">9,16,17,10,202,209,210,203</elem>
			<elem id="3611">10,17,18,11,203,210,211,204</elem>
			<elem id="3612">11,18,19,12,204,211,212,205</elem>
			<elem id="3613">12,19,20,13,205,212,213,206</elem>
			<elem id="3614">13,20,21,14,206,213,214,207</elem>
			<elem id="3615">15,22,23,16,208,215,216,209</elem>
			<elem id="3616">16,23,24,17,209,216,217,210</elem>
			<elem id="3617">17,24,25,18,210,217,218,211</elem>
			<elem id="3618">18,25,26,19,211,218,219,212</elem>
			<elem id="3619">19,26,27,20,212,219,220,213</elem>
			<elem id="3620">20,27,28,21,213,220,221,214</elem>
			<elem id="3621">22,29,30,23,215,222,223,216</elem>
			<elem id="3622">23,30,31,24,216,223,224,217</elem>
<!-- ... 1184 like lines cut -->
		</Elements>
		<Elements type="hex8" name="Part16">
			<elem id="4807">3077,3084,3085,3078,3270,3277,3278,3271</elem>
			<elem id="4808">3078,3085,3086,3079,3271,3278,3279,3272</elem>
			<elem id="4809">3079,3086,3087,3080,3272,3279,3280,3273</elem>
			<elem id="4810">3080,3087,3088,3081,3273,3280,3281,3274</elem>
			<elem id="4811">3081,3088,3089,3082,3274,3281,3282,3275</elem>
			<elem id="4812">3082,3089,3090,3083,3275,3282,3283,3276</elem>
			<elem id="4813">3084,3091,3092,3085,3277,3284,3285,3278</elem>
			<elem id="4814">3085,3092,3093,3086,3278,3285,3286,3279</elem>
			<elem id="4815">3086,3093,3094,3087,3279,3286,3287,3280</elem>
			<elem id="4816">3087,3094,3095,3088,3280,3287,3288,3281</elem>
			<elem id="4817">3088,3095,3096,3089,3281,3288,3289,3282</elem>
			<elem id="4818">3089,3096,3097,3090,3282,3289,3290,3283</elem>
			<elem id="4819">3091,3098,3099,3092,3284,3291,3292,3285</elem>
			<elem id="4820">3092,3099,3100,3093,3285,3292,3293,3286</elem>
			<elem id="4821">3093,3100,3101,3094,3286,3293,3294,3287</elem>
			<elem id="4822">3094,3101,3102,3095,3287,3294,3295,3288</elem>
			<elem id="4823">3095,3102,3103,3096,3288,3295,3296,3289</elem>
			<elem id="4824">3096,3103,3104,3097,3289,3296,3297,3290</elem>
			<elem id="4825">3098,3105,3106,3099,3291,3298,3299,3292</elem>
			<elem id="4826">3099,3106,3107,3100,3292,3299,3300,3293</elem>
<!-- ... 160 like lines cut -->
		</Elements>
		<Elements type="hex8" name="Part17">
			<elem id="4987">2691,2698,2699,2692,2884,2891,2892,2885</elem>
			<elem id="4988">2692,2699,2700,2693,2885,2892,2893,2886</elem>
			<elem id="4989">2693,2700,2701,2694,2886,2893,2894,2887</elem>
			<elem id="4990">2694,2701,2702,2695,2887,2894,2895,2888</elem>
			<elem id="4991">2695,2702,2703,2696,2888,2895,2896,2889</elem>
			<elem id="4992">2696,2703,2704,2697,2889,2896,2897,2890</elem>
			<elem id="4993">2698,2705,2706,2699,2891,2898,2899,2892</elem>
			<elem id="4994">2699,2706,2707,2700,2892,2899,2900,2893</elem>
			<elem id="4995">2700,2707,2708,2701,2893,2900,2901,2894</elem>
			<elem id="4996">2701,2708,2709,2702,2894,2901,2902,2895</elem>
			<elem id="4997">2702,2709,2710,2703,2895,2902,2903,2896</elem>
			<elem id="4998">2703,2710,2711,2704,2896,2903,2904,2897</elem>
			<elem id="4999">2705,2712,2713,2706,2898,2905,2906,2899</elem>
			<elem id="5000">2706,2713,2714,2707,2899,2906,2907,2900</elem>
			<elem id="5001">2707,2714,2715,2708,2900,2907,2908,2901</elem>
			<elem id="5002">2708,2715,2716,2709,2901,2908,2909,2902</elem>
			<elem id="5003">2709,2716,2717,2710,2902,2909,2910,2903</elem>
			<elem id="5004">2710,2717,2718,2711,2903,2910,2911,2904</elem>
			<elem id="5005">2712,2719,2720,2713,2905,2912,2913,2906</elem>
			<elem id="5006">2713,2720,2721,2714,2906,2913,2914,2907</elem>
<!-- ... 160 like lines cut -->
		</Elements>
		<NodeSet name="FixedDisplacement01">
			5409, 5410, 5411, 5412, 5413, 5414, 5415, 5416,
			5417, 5418, 5419, 5420, 5421, 5422, 5423, 5424,
			5425, 5426, 5427, 5428, 5429, 5430, 5431, 5432,
			5433, 5434, 5435, 5436, 5437, 5438, 5439, 5440,
			5441, 5442, 5443, 5444, 5445, 5446, 5447, 5448,
			5449, 5450, 5451, 5452, 5453, 5454, 5455, 5456,
			5457, 5458, 5459, 5460, 5461, 5462, 5463, 5464,
			5465, 5466, 5467, 5468, 5469, 5470, 5471, 5472,
			5473, 5474, 5475, 5476, 5477, 5478, 5479, 5480,
			5481, 5482, 5483, 5484, 5485, 5486, 5487, 5488,
			5489, 5490, 5491, 5492, 5493, 5494, 5495, 5496,
			5497, 5498, 5499, 5500, 5501, 5502, 5503, 5504,
			5505, 5506, 5507, 5508, 5509, 5510, 5511, 5512,
			5513, 5514, 5515, 5516, 5517, 5518, 5519, 5520,
			5521, 5522, 5523, 5524, 5525, 5526, 5527, 5528,
			5529, 5530, 5531, 5532, 5533, 5534, 5535, 5536,
			5537, 5538, 5539, 5540, 5541, 5542, 5543, 5544,
			5545, 5546, 5547, 5548, 5549, 5550, 5551, 5552,
			5553, 5554, 5555, 5556, 5557, 5558, 5559, 5560,
			5561, 5562, 5563, 5564, 5565, 5566, 5567, 5568,
<!-- ... 29 like lines cut -->
		</NodeSet>
		<NodeSet name="FixedDisplacement02">
			5409, 5410, 5411, 5412, 5413, 5414, 5415, 5416,
			5417, 5418, 5419, 5420, 5421, 5422, 5423, 5424,
			5425, 5426, 5427, 5428, 5429, 5430, 5431, 5432,
			5433, 5434, 5435, 5436, 5437, 5438, 5439, 5440,
			5441, 5442, 5443, 5444, 5445, 5446, 5447, 5448,
			5449, 5450, 5451, 5452, 5453, 5454, 5455, 5456,
			5457, 5458, 5459, 5460, 5461, 5462, 5463, 5464,
			5465, 5466, 5467, 5468, 5469, 5470, 5471, 5472,
			5473, 5474, 5475, 5476, 5477, 5478, 5479, 5480,
			5481, 5482, 5483, 5484, 5485, 5486, 5487, 5488,
			5489, 5490, 5491, 5492, 5493, 5494, 5495, 5496,
			5497, 5498, 5499, 5500, 5501, 5502, 5503, 5504,
			5505, 5506, 5507, 5508, 5509, 5510, 5511, 5512,
			5513, 5514, 5515, 5516, 5517, 5518, 5519, 5520,
			5521, 5522, 5523, 5524, 5525, 5526, 5527, 5528,
			5529, 5530, 5531, 5532, 5533, 5534, 5535, 5536,
			5537, 5538, 5539, 5540, 5541, 5542, 5543, 5544,
			5545, 5546, 5547, 5548, 5549, 5550, 5551, 5552,
			5553, 5554, 5555, 5556, 5557, 5558, 5559, 5560,
			5561, 5562, 5563, 5564, 5565, 5566, 5567, 5568,
<!-- ... 29 like lines cut -->
		</NodeSet>
		<NodeSet name="FixedDisplacement03">
			5409, 5410, 5411, 5412, 5413, 5414, 5415, 5416,
			5417, 5418, 5419, 5420, 5421, 5422, 5423, 5424,
			5425, 5426, 5427, 5428, 5429, 5430, 5431, 5432,
			5433, 5434, 5435, 5436, 5437, 5438, 5439, 5440,
			5441, 5442, 5443, 5444, 5445, 5446, 5447, 5448,
			5449, 5450, 5451, 5452, 5453, 5454, 5455, 5456,
			5457, 5458, 5459, 5460, 5461, 5462, 5463, 5464,
			5465, 5466, 5467, 5468, 5469, 5470, 5471, 5472,
			5473, 5474, 5475, 5476, 5477, 5478, 5479, 5480,
			5481, 5482, 5483, 5484, 5485, 5486, 5487, 5488,
			5489, 5490, 5491, 5492, 5493, 5494, 5495, 5496,
			5497, 5498, 5499, 5500, 5501, 5502, 5503, 5504,
			5505, 5506, 5507, 5508, 5509, 5510, 5511, 5512,
			5513, 5514, 5515, 5516, 5517, 5518, 5519, 5520,
			5521, 5522, 5523, 5524, 5525, 5526, 5527, 5528,
			5529, 5530, 5531, 5532, 5533, 5534, 5535, 5536,
			5537, 5538, 5539, 5540, 5541, 5542, 5543, 5544,
			5545, 5546, 5547, 5548, 5549, 5550, 5551, 5552,
			5553, 5554, 5555, 5556, 5557, 5558, 5559, 5560,
			5561, 5562, 5563, 5564, 5565, 5566, 5567, 5568,
<!-- ... 29 like lines cut -->
		</NodeSet>
		<NodeSet name="RigidNodeset 1">
			5602, 5603, 5604, 5605, 5606, 5607, 5608, 5609,
			5610, 5611, 5612, 5613, 5614, 5615, 5616, 5617,
			5618, 5619, 5620, 5621, 5622, 5623, 5624, 5625,
			5626, 5627, 5628, 5629, 5630, 5631, 5632, 5633,
			5634, 5635, 5636, 5637, 5638, 5639, 5640, 5641,
			5642, 5643, 5644, 5645, 5646, 5647, 5648, 5649,
			5650, 5651, 5652, 5653, 5654, 5655, 5656, 5657,
			5658, 5659, 5660, 5661, 5662, 5663, 5664, 5665,
			5666, 5667, 5668, 5669, 5670, 5671, 5672, 5673,
			5674, 5675, 5676, 5677, 5678, 5679, 5680, 5681,
			5682, 5683, 5684, 5685, 5686, 5687, 5688, 5689,
			5690, 5691, 5692, 5693, 5694, 5695, 5696, 5697,
			5698, 5699, 5700, 5701, 5702, 5703, 5704, 5705,
			5706, 5707, 5708, 5709, 5710, 5711, 5712, 5713,
			5714, 5715, 5716, 5717, 5718, 5719, 5720, 5721,
			5722, 5723, 5724, 5725, 5726, 5727, 5728, 5729,
			5730, 5731, 5732, 5733, 5734, 5735, 5736, 5737,
			5738, 5739, 5740, 5741, 5742, 5743, 5744, 5745,
			5746, 5747, 5748, 5749, 5750, 5751, 5752, 5753,
			5754, 5755, 5756, 5757, 5758, 5759, 5760, 5761,
<!-- ... 5 like lines cut -->
		</NodeSet>
		<NodeSet name="RigidNodeset 2">
			3479, 3480, 3481, 3482, 3483, 3484, 3485, 3486,
			3487, 3488, 3489, 3490, 3491, 3492, 3493, 3494,
			3495, 3496, 3497, 3498, 3499, 3500, 3501, 3502,
			3503, 3504, 3505, 3506, 3507, 3508, 3509, 3510,
			3511, 3512, 3513, 3514, 3515, 3516, 3517, 3518,
			3519, 3520, 3521, 3522, 3523, 3524, 3525, 3526,
			3527, 3528, 3529, 3530, 3531, 3532, 3533, 3534,
			3535, 3536, 3537, 3538, 3539, 3540, 3541, 3542,
			3543, 3544, 3545, 3546, 3547, 3548, 3549, 3550,
			3551, 3552, 3553, 3554, 3555, 3556, 3557, 3558,
			3559, 3560, 3561, 3562, 3563, 3564, 3565, 3566,
			3567, 3568, 3569, 3570, 3571, 3572, 3573, 3574,
			3575, 3576, 3577, 3578, 3579, 3580, 3581, 3582,
			3583, 3584, 3585, 3586, 3587, 3588, 3589, 3590,
			3591, 3592, 3593, 3594, 3595, 3596, 3597, 3598,
			3599, 3600, 3601, 3602, 3603, 3604, 3605, 3606,
			3607, 3608, 3609, 3610, 3611, 3612, 3613, 3614,
			3615, 3616, 3617, 3618, 3619, 3620, 3621, 3622,
			3623, 3624, 3625, 3626, 3627, 3628, 3629, 3630,
			3631, 3632, 3633, 3634, 3635, 3636, 3637, 3638,
<!-- ... 5 like lines cut -->
		</NodeSet>
		<ElementSet name="unnamed_set01">
			2328
		</ElementSet>
	</Mesh>
	<MeshDomains>
		<SolidDomain name="Part11" mat="chamber1"/>
		<SolidDomain name="Part12" mat="chamber2"/>
		<SolidDomain name="Part13" mat="shaft2"/>
		<SolidDomain name="Part14" mat="shaft1"/>
		<SolidDomain name="Part15" mat="crank"/>
		<SolidDomain name="Part16" mat="piston1"/>
		<SolidDomain name="Part17" mat="piston2"/>
	</MeshDomains>
	<Boundary>
		<bc name="FixedDisplacement01" node_set="FixedDisplacement01" type="zero displacement">
			<x_dof>0</x_dof>
			<y_dof>0</y_dof>
			<z_dof>1</z_dof>
		</bc>
		<bc name="FixedDisplacement02" node_set="FixedDisplacement02" type="zero displacement">
			<x_dof>0</x_dof>
			<y_dof>1</y_dof>
			<z_dof>0</z_dof>
		</bc>
		<bc name="FixedDisplacement03" node_set="FixedDisplacement03" type="zero displacement">
			<x_dof>1</x_dof>
			<y_dof>0</y_dof>
			<z_dof>0</z_dof>
		</bc>
		<bc name="RigidInterface06" node_set="RigidNodeset 1" type="rigid">
			<rb>piston1</rb>
			<clamp_shells>1</clamp_shells>
		</bc>
		<bc name="RigidInterface07" node_set="RigidNodeset 2" type="rigid">
			<rb>piston2</rb>
			<clamp_shells>1</clamp_shells>
		</bc>
		<bc name="fixed_chamber1" node_set="@elem_set:Part11" type="zero displacement">
			<x_dof>1</x_dof>
			<y_dof>1</y_dof>
			<z_dof>0</z_dof>
		</bc>
		<bc name="fixed_chamber2" node_set="@elem_set:Part12" type="zero displacement">
			<x_dof>1</x_dof>
			<y_dof>1</y_dof>
			<z_dof>0</z_dof>
		</bc>
	</Boundary>
	<Rigid>
		<rigid_bc name="RigidFixed75" type="rigid_fixed">
			<rb>shaft2</rb>
			<Rx_dof>1</Rx_dof>
			<Ry_dof>0</Ry_dof>
			<Rz_dof>0</Rz_dof>
			<Ru_dof>0</Ru_dof>
			<Rv_dof>1</Rv_dof>
			<Rw_dof>1</Rw_dof>
		</rigid_bc>
		<rigid_bc name="RigidFixed76" type="rigid_fixed">
			<rb>shaft1</rb>
			<Rx_dof>1</Rx_dof>
			<Ry_dof>0</Ry_dof>
			<Rz_dof>0</Rz_dof>
			<Ru_dof>0</Ru_dof>
			<Rv_dof>1</Rv_dof>
			<Rw_dof>1</Rw_dof>
		</rigid_bc>
		<rigid_bc name="RigidFixed77" type="rigid_fixed">
			<rb>crank</rb>
			<Rx_dof>1</Rx_dof>
			<Ry_dof>1</Ry_dof>
			<Rz_dof>1</Rz_dof>
			<Ru_dof>0</Ru_dof>
			<Rv_dof>1</Rv_dof>
			<Rw_dof>1</Rw_dof>
		</rigid_bc>
		<rigid_bc name="RigidDisplacement35" type="rigid_rotation">
			<rb>crank</rb>
			<dof>Ru</dof>
			<value lc="1">1</value>
			<relative>0</relative>
		</rigid_bc>
		<rigid_bc name="RigidFixed78" type="rigid_fixed">
			<rb>piston1</rb>
			<Rx_dof>1</Rx_dof>
			<Ry_dof>1</Ry_dof>
			<Rz_dof>0</Rz_dof>
			<Ru_dof>1</Ru_dof>
			<Rv_dof>1</Rv_dof>
			<Rw_dof>1</Rw_dof>
		</rigid_bc>
		<rigid_bc name="RigidFixed79" type="rigid_fixed">
			<rb>piston2</rb>
			<Rx_dof>1</Rx_dof>
			<Ry_dof>1</Ry_dof>
			<Rz_dof>0</Rz_dof>
			<Ru_dof>1</Ru_dof>
			<Rv_dof>1</Rv_dof>
			<Rw_dof>1</Rw_dof>
		</rigid_bc>
		<rigid_connector name="RigidJoint01" type="rigid joint">
			<body_a>crank</body_a>
			<body_b>shaft1</body_b>
			<laugon>1</laugon>
			<tolerance>0.1</tolerance>
			<penalty>10</penalty>
			<joint>-0.868,0.419154,0</joint>
		</rigid_connector>
		<rigid_connector name="RigidJoint02" type="rigid joint">
			<body_a>crank</body_a>
			<body_b>shaft2</body_b>
			<laugon>1</laugon>
			<tolerance>0.1</tolerance>
			<penalty>10</penalty>
			<joint>-0.2784,-0.34,0</joint>
		</rigid_connector>
		<rigid_connector name="RigidJoint03" type="rigid joint">
			<body_a>piston1</body_a>
			<body_b>shaft1</body_b>
			<laugon>1</laugon>
			<tolerance>0.1</tolerance>
			<penalty>10</penalty>
			<joint>-0.85,0,1.4</joint>
		</rigid_connector>
		<rigid_connector name="RigidJoint04" type="rigid joint">
			<body_a>piston2</body_a>
			<body_b>shaft2</body_b>
			<laugon>1</laugon>
			<tolerance>0.1</tolerance>
			<penalty>10</penalty>
			<joint>-0.25,0,1.4</joint>
		</rigid_connector>
	</Rigid>
	<LoadData>
		<load_controller id="1" name="LC1" type="loadcurve">
			<interpolate>LINEAR</interpolate>
			<extend>CONSTANT</extend>
			<points>
				<pt>0,0</pt>
				<pt>62,6.2</pt>
			</points>
		</load_controller>
	</LoadData>
	<Output>
		<plotfile type="febio">
			<var type="displacement"/>
			<var type="stress"/>
		</plotfile>
	</Output>
</febio_spec>
