<?xml version="1.0" encoding="ISO-8859-1"?>
<!--
Two rigid plates have a rigid joint at their center.  Each plate has a 5 element block
of neoHookean material attached by rigid contact to the top of the plate.  The free
end block on the left is constrained in x,yz.  The free end of the block on the right
has a prescribed xdisplacement of 1 unit at time t=1.
-->
<febio_spec version="4.0">
	<Module type="solid"/>
	<Control>
		<analysis>STATIC</analysis>
		<time_steps>10</time_steps>
		<step_size>0.1</step_size>
		<plot_zero_state>0</plot_zero_state>
		<plot_range>0,-1</plot_range>
		<plot_level>PLOT_MAJOR_ITRS</plot_level>
		<output_level>OUTPUT_MAJOR_ITRS</output_level>
		<plot_stride>1</plot_stride>
		<adaptor_re_solve>1</adaptor_re_solve>
		<time_stepper type="default">
			<max_retries>15</max_retries>
			<opt_iter>10</opt_iter>
			<dtmin>0.01</dtmin>
			<dtmax>0.1</dtmax>
			<aggressiveness>0</aggressiveness>
			<cutback>0.5</cutback>
			<dtforce>0</dtforce>
		</time_stepper>
		<solver type="solid">
			<symmetric_stiffness>symmetric</symmetric_stiffness>
			<equation_scheme>staggered</equation_scheme>
			<equation_order>default</equation_order>
			<optimize_bw>0</optimize_bw>
			<lstol>0.9</lstol>
			<lsmin>0.01</lsmin>
			<lsiter>5</lsiter>
			<max_refs>15</max_refs>
			<check_zero_diagonal>0</check_zero_diagonal>
			<zero_diagonal_tol>0</zero_diagonal_tol>
			<force_partition>0</force_partition>
			<reform_each_time_step>1</reform_each_time_step>
			<reform_augment>0</reform_augment>
			<diverge_reform>1</diverge_reform>
			<min_residual>1e-20</min_residual>
			<max_residual>0</max_residual>
			<dtol>0.001</dtol>
			<etol>0.01</etol>
			<rtol>0</rtol>
			<rhoi>-2</rhoi>
			<alpha>1</alpha>
			<beta>0.25</beta>
			<gamma>0.5</gamma>
			<logSolve>0</logSolve>
			<arc_length>0</arc_length>
			<arc_length_scale>0</arc_length_scale>
			<qn_method type="BFGS">
				<max_ups>10</max_ups>
				<max_buffer_size>0</max_buffer_size>
				<cycle_buffer>1</cycle_buffer>
				<cmax>100000</cmax>
			</qn_method>
		</solver>
	</Control>
	<Globals>
		<Constants>
			<T>0</T>
			<R>0</R>
			<Fc>0</Fc>
		</Constants>
	</Globals>
	<Material>
		<material id="1" name="deformable" type="neo-Hookean">
			<density>1</density>
			<E>1</E>
			<v>0</v>
		</material>
		<material id="2" name="rigid 1" type="rigid body">
			<density>1</density>
			<E>1</E>
			<v>0</v>
		</material>
		<material id="3" name="rigid2" type="rigid body">
			<density>1</density>
			<E>1</E>
			<v>0</v>
		</material>
	</Material>
	<Mesh>
		<Nodes name="Object01">
			<node id="1">-0.5,-0.1,0</node>
			<node id="2">-0.5,-0.1,1</node>
			<node id="3">-0.5,0.1,0</node>
			<node id="4">-0.5,0.1,1</node>
			<node id="5">0.5,-0.1,0</node>
			<node id="6">0.5,-0.1,1</node>
			<node id="7">0.5,0.1,0</node>
			<node id="8">0.5,0.1,1</node>
			<node id="9">-0.5,0.1,0</node>
			<node id="10">-0.5,0.1,1</node>
			<node id="11">-0.5,0.30000001,0</node>
			<node id="12">-0.5,0.30000001,1</node>
			<node id="13">0.5,0.1,0</node>
			<node id="14">0.5,0.1,1</node>
			<node id="15">0.5,0.30000001,0</node>
			<node id="16">0.5,0.30000001,1</node>
			<node id="17">0.5,0.1,0.80000001</node>
			<node id="18">0.5,0.1,1</node>
			<node id="19">0.5,0.30000001,0.80000001</node>
			<node id="20">0.5,0.30000001,1</node>
<!-- ... 44 like lines cut -->
		</Nodes>
		<Elements type="hex8" name="Part25">
			<elem id="1">17,21,23,19,18,22,24,20</elem>
			<elem id="2">21,25,27,23,22,26,28,24</elem>
			<elem id="3">25,29,31,27,26,30,32,28</elem>
			<elem id="4">29,33,35,31,30,34,36,32</elem>
			<elem id="5">33,37,39,35,34,38,40,36</elem>
			<elem id="6">41,45,47,43,42,46,48,44</elem>
			<elem id="7">45,49,51,47,46,50,52,48</elem>
			<elem id="8">49,53,55,51,50,54,56,52</elem>
			<elem id="9">53,57,59,55,54,58,60,56</elem>
			<elem id="10">57,61,63,59,58,62,64,60</elem>
		</Elements>
		<Elements type="hex8" name="Part26">
			<elem id="11">1,5,7,3,2,6,8,4</elem>
		</Elements>
		<Elements type="hex8" name="Part27">
			<elem id="12">9,13,15,11,10,14,16,12</elem>
		</Elements>
		<NodeSet name="FixedDisplacement01">
			37, 38, 39, 40, 41, 42, 43, 44
		</NodeSet>
		<NodeSet name="FixedDisplacement02">
			41, 42, 43, 44
		</NodeSet>
		<NodeSet name="FixedDisplacement03">
			41, 42, 43, 44
		</NodeSet>
		<NodeSet name="PrescribedBC199">
			37, 38, 39, 40
		</NodeSet>
		<NodeSet name="RigidNodeset 1">
			17, 18, 19, 20
		</NodeSet>
		<NodeSet name="RigidNodeset 2">
			61, 62, 63, 64
		</NodeSet>
		<ElementSet name="unnamed_set01">
			6
		</ElementSet>
	</Mesh>
	<MeshDomains>
		<SolidDomain name="Part25" mat="deformable"/>
		<SolidDomain name="Part26" mat="rigid 1"/>
		<SolidDomain name="Part27" mat="rigid2"/>
	</MeshDomains>
	<Boundary>
		<bc name="FixedDisplacement01" node_set="FixedDisplacement01" type="zero displacement">
			<x_dof>0</x_dof>
			<y_dof>0</y_dof>
			<z_dof>1</z_dof>
		</bc>
		<bc name="FixedDisplacement02" node_set="FixedDisplacement02" type="zero displacement">
			<x_dof>0</x_dof>
			<y_dof>1</y_dof>
			<z_dof>0</z_dof>
		</bc>
		<bc name="FixedDisplacement03" node_set="FixedDisplacement03" type="zero displacement">
			<x_dof>1</x_dof>
			<y_dof>0</y_dof>
			<z_dof>0</z_dof>
		</bc>
		<bc name="PrescribedBC199" node_set="PrescribedBC199" type="prescribed displacement">
			<dof>x</dof>
			<value lc="1">1</value>
			<relative>0</relative>
		</bc>
		<bc name="RigidInterface03" node_set="RigidNodeset 1" type="rigid">
			<rb>rigid2</rb>
			<clamp_shells>1</clamp_shells>
		</bc>
		<bc name="RigidInterface02" node_set="RigidNodeset 2" type="rigid">
			<rb>rigid 1</rb>
			<clamp_shells>1</clamp_shells>
		</bc>
	</Boundary>
	<Rigid>
		<rigid_bc name="RigidFixed85" type="rigid_fixed">
			<rb>rigid 1</rb>
			<Rx_dof>0</Rx_dof>
			<Ry_dof>1</Ry_dof>
			<Rz_dof>1</Rz_dof>
			<Ru_dof>1</Ru_dof>
			<Rv_dof>0</Rv_dof>
			<Rw_dof>1</Rw_dof>
		</rigid_bc>
		<rigid_bc name="RigidFixed86" type="rigid_fixed">
			<rb>rigid2</rb>
			<Rx_dof>0</Rx_dof>
			<Ry_dof>1</Ry_dof>
			<Rz_dof>1</Rz_dof>
			<Ru_dof>1</Ru_dof>
			<Rv_dof>0</Rv_dof>
			<Rw_dof>1</Rw_dof>
		</rigid_bc>
		<rigid_connector name="RigidJoint01" type="rigid joint">
			<body_a>rigid 1</body_a>
			<body_b>rigid2</body_b>
			<laugon>1</laugon>
			<tolerance>0.01</tolerance>
			<penalty>1000</penalty>
			<joint>0,0.1,0.5</joint>
		</rigid_connector>
	</Rigid>
	<LoadData>
		<load_controller id="1" name="LC1" type="loadcurve">
			<interpolate>LINEAR</interpolate>
			<extend>CONSTANT</extend>
			<points>
				<pt>0,0</pt>
				<pt>1,1</pt>
			</points>
		</load_controller>
	</LoadData>
	<Output>
		<plotfile type="febio">
			<var type="displacement"/>
			<var type="stress"/>
		</plotfile>
		<logfile>
			<element_data data="sx" elem_set="unnamed_set01"/>
		</logfile>
	</Output>
</febio_spec>
