<?xml version="1.0" encoding="ISO-8859-1"?>
<!--
A block connected to an inclined plane using a planar joint, constrained by a spring, under the action of gravity, in a dynamic analysis.
-->
<febio_spec version="4.0">
	<Module type="solid"/>
	<Control>
		<analysis>DYNAMIC</analysis>
		<time_steps>1000</time_steps>
		<step_size>0.01</step_size>
		<plot_zero_state>0</plot_zero_state>
		<plot_range>0,-1</plot_range>
		<plot_level>PLOT_MAJOR_ITRS</plot_level>
		<output_level>OUTPUT_MAJOR_ITRS</output_level>
		<plot_stride>1</plot_stride>
		<adaptor_re_solve>1</adaptor_re_solve>
		<time_stepper type="default">
			<max_retries>5</max_retries>
			<opt_iter>10</opt_iter>
			<dtmin>0.001</dtmin>
			<dtmax>0.01</dtmax>
			<aggressiveness>0</aggressiveness>
			<cutback>0.5</cutback>
			<dtforce>0</dtforce>
		</time_stepper>
		<solver type="solid">
			<symmetric_stiffness>non-symmetric</symmetric_stiffness>
			<equation_scheme>staggered</equation_scheme>
			<equation_order>default</equation_order>
			<optimize_bw>0</optimize_bw>
			<lstol>0.9</lstol>
			<lsmin>0.01</lsmin>
			<lsiter>5</lsiter>
			<max_refs>15</max_refs>
			<check_zero_diagonal>0</check_zero_diagonal>
			<zero_diagonal_tol>0</zero_diagonal_tol>
			<force_partition>0</force_partition>
			<reform_each_time_step>1</reform_each_time_step>
			<reform_augment>0</reform_augment>
			<diverge_reform>1</diverge_reform>
			<min_residual>1e-20</min_residual>
			<max_residual>0</max_residual>
			<dtol>0.001</dtol>
			<etol>0.01</etol>
			<rtol>0</rtol>
			<rhoi>0.5</rhoi>
			<alpha>1</alpha>
			<beta>0.25</beta>
			<gamma>0.5</gamma>
			<logSolve>0</logSolve>
			<arc_length>0</arc_length>
			<arc_length_scale>0</arc_length_scale>
			<qn_method type="BFGS">
				<max_ups>0</max_ups>
				<max_buffer_size>0</max_buffer_size>
				<cycle_buffer>1</cycle_buffer>
				<cmax>100000</cmax>
			</qn_method>
		</solver>
	</Control>
	<Globals>
		<Constants>
			<T>0</T>
			<R>0</R>
			<Fc>0</Fc>
		</Constants>
	</Globals>
	<Material>
		<material id="1" name="Inclined Plane" type="rigid body">
			<density>1</density>
			<E>1</E>
			<v>0</v>
			<center_of_mass>0,0,0</center_of_mass>
		</material>
		<material id="2" name="Block" type="rigid body">
			<density>1</density>
			<E>1</E>
			<v>0</v>
		</material>
	</Material>
	<Mesh>
		<Nodes name="Object01">
			<node id="1">-5,-4.330127,-2.5</node>
			<node id="2">-5,4.330127,2.5</node>
			<node id="3">5,-4.330127,-2.5</node>
			<node id="4">5,4.330127,2.5</node>
			<node id="5">1.75,3.4640973,1.9999973</node>
			<node id="6">1.75,2.9640973,2.8660227</node>
			<node id="7">1.75,4.3301227,2.4999973</node>
			<node id="8">1.75,3.8301227,3.3660227</node>
			<node id="9">2.75,3.4640973,1.9999973</node>
			<node id="10">2.75,2.9640973,2.8660227</node>
			<node id="11">2.75,4.3301227,2.4999973</node>
			<node id="12">2.75,3.8301227,3.3660227</node>
		</Nodes>
		<Elements type="quad4" name="Part1">
			<elem id="1">1,3,4,2</elem>
		</Elements>
		<Elements type="hex8" name="Part3">
			<elem id="2">5,9,11,7,6,10,12,8</elem>
		</Elements>
	</Mesh>
	<MeshDomains>
		<ShellDomain name="Part1" mat="Inclined Plane">
			<shell_thickness>0</shell_thickness>
		</ShellDomain>
		<SolidDomain name="Part3" mat="Block"/>
	</MeshDomains>
	<MeshData>
		<ElementData type="shell thickness" elem_set="Part1">
			<e lid="1">0.01,0.01,0.01,0.01</e>
		</ElementData>
	</MeshData>
	<Rigid>
		<rigid_bc name="RigidFixed113" type="rigid_fixed">
			<rb>Inclined Plane</rb>
			<Rx_dof>1</Rx_dof>
			<Ry_dof>1</Ry_dof>
			<Rz_dof>1</Rz_dof>
			<Ru_dof>1</Ru_dof>
			<Rv_dof>1</Rv_dof>
			<Rw_dof>1</Rw_dof>
		</rigid_bc>
		<rigid_connector name="Joint01" type="rigid planar joint">
			<body_a>Inclined Plane</body_a>
			<body_b>Block</body_b>
			<tolerance>0</tolerance>
			<gaptol>0.0001</gaptol>
			<angtol>0.0001</angtol>
			<force_penalty>1000000</force_penalty>
			<moment_penalty>1000000</moment_penalty>
			<joint_origin>0,0,0</joint_origin>
			<rotation_axis>0,-0.5,0.8660254</rotation_axis>
			<translation_axis_1>1,0,0</translation_axis_1>
			<minaug>0</minaug>
			<maxaug>10</maxaug>
			<prescribed_rotation>0</prescribed_rotation>
			<rotation>0</rotation>
			<prescribed_translation_1>0</prescribed_translation_1>
			<translation_1>0</translation_1>
			<prescribed_translation_2>0</prescribed_translation_2>
			<translation_2>0</translation_2>
			<auto_penalty>0</auto_penalty>
		</rigid_connector>
		<rigid_connector name="RigidSpring01" type="rigid spring">
			<body_a>Inclined Plane</body_a>
			<body_b>Block</body_b>
			<k>3</k>
			<insertion_a>0,3.8971143,2.25</insertion_a>
			<insertion_b>1.75,3.8971143,2.25</insertion_b>
			<free_length>0</free_length>
		</rigid_connector>
	</Rigid>
	<Loads>
		<body_load type="const">
			<x lc="1">0</x>
			<y lc="2">0</y>
			<z lc="3">1</z>
		</body_load>
	</Loads>
	<LoadData>
		<load_controller id="1" name="LC1" type="loadcurve">
			<interpolate>SMOOTH</interpolate>
			<extend>CONSTANT</extend>
			<points>
				<pt>0,0</pt>
				<pt>1,1</pt>
			</points>
		</load_controller>
		<load_controller id="2" name="LC2" type="loadcurve">
			<interpolate>SMOOTH</interpolate>
			<extend>CONSTANT</extend>
			<points>
				<pt>0,0</pt>
				<pt>1,1</pt>
			</points>
		</load_controller>
		<load_controller id="3" name="LC3" type="loadcurve">
			<interpolate>STEP</interpolate>
			<extend>CONSTANT</extend>
			<points>
				<pt>0,0</pt>
				<pt>1,9.81</pt>
			</points>
		</load_controller>
	</LoadData>
	<Output>
		<plotfile type="febio">
			<var type="acceleration"/>
			<var type="displacement"/>
			<var type="reaction forces"/>
			<var type="rigid acceleration"/>
			<var type="rigid angular acceleration"/>
			<var type="rigid angular position"/>
			<var type="rigid angular velocity"/>
			<var type="rigid kinetic energy"/>
			<var type="rigid position"/>
			<var type="rigid torque"/>
			<var type="rigid velocity"/>
			<var type="stress"/>
			<var type="velocity"/>
		</plotfile>
		<logfile>
			<rigid_body_data data="Fy"/>
		</logfile>
	</Output>
</febio_spec>
