<?xml version="1.0" encoding="ISO-8859-1"?>
<!--
A cylinder is constrained in x,y,z on its top end and attached  by rigid
contact on its bottom end to a rigid spherical shell with zdislacement of
1 units at time t=1.
-->
<febio_spec version="4.0">
	<Module type="solid"/>
	<Control>
		<analysis>STATIC</analysis>
		<time_steps>10</time_steps>
		<step_size>0.1</step_size>
		<plot_zero_state>0</plot_zero_state>
		<plot_range>0,-1</plot_range>
		<plot_level>PLOT_MAJOR_ITRS</plot_level>
		<output_level>OUTPUT_MAJOR_ITRS</output_level>
		<plot_stride>1</plot_stride>
		<adaptor_re_solve>1</adaptor_re_solve>
		<time_stepper type="default">
			<max_retries>5</max_retries>
			<opt_iter>10</opt_iter>
			<dtmin>0.01</dtmin>
			<dtmax>0.1</dtmax>
			<aggressiveness>0</aggressiveness>
			<cutback>0.5</cutback>
			<dtforce>0</dtforce>
		</time_stepper>
		<solver type="solid">
			<symmetric_stiffness>symmetric</symmetric_stiffness>
			<equation_scheme>staggered</equation_scheme>
			<equation_order>default</equation_order>
			<optimize_bw>0</optimize_bw>
			<lstol>0.9</lstol>
			<lsmin>0.01</lsmin>
			<lsiter>5</lsiter>
			<max_refs>15</max_refs>
			<check_zero_diagonal>0</check_zero_diagonal>
			<zero_diagonal_tol>0</zero_diagonal_tol>
			<force_partition>0</force_partition>
			<reform_each_time_step>1</reform_each_time_step>
			<reform_augment>0</reform_augment>
			<diverge_reform>1</diverge_reform>
			<min_residual>1e-20</min_residual>
			<max_residual>0</max_residual>
			<dtol>0.001</dtol>
			<etol>0.01</etol>
			<rtol>0</rtol>
			<rhoi>-2</rhoi>
			<alpha>1</alpha>
			<beta>0.25</beta>
			<gamma>0.5</gamma>
			<logSolve>0</logSolve>
			<arc_length>0</arc_length>
			<arc_length_scale>0</arc_length_scale>
			<qn_method type="BFGS">
				<max_ups>10</max_ups>
				<max_buffer_size>0</max_buffer_size>
				<cycle_buffer>1</cycle_buffer>
				<cmax>100000</cmax>
			</qn_method>
		</solver>
	</Control>
	<Globals>
		<Constants>
			<T>0</T>
			<R>0</R>
			<Fc>0</Fc>
		</Constants>
	</Globals>
	<Material>
		<material id="1" name="Material 1" type="neo-Hookean">
			<density>1</density>
			<E>1</E>
			<v>0.45</v>
		</material>
		<material id="2" name="Material 2" type="rigid body">
			<density>1</density>
			<E>1</E>
			<v>0</v>
			<center_of_mass>0,0,0</center_of_mass>
		</material>
	</Material>
	<Mesh>
		<Nodes name="Object01">
			<node id="1">-0.21213203,-0.21213203,0</node>
			<node id="2">-0.21213203,-0.10606602,0</node>
			<node id="3">-0.21213203,2.3299794e-09,0</node>
			<node id="4">-0.21213203,0.10606602,0</node>
			<node id="5">-0.21213203,0.21213204,0</node>
			<node id="6">-0.10606602,-0.21213203,0</node>
			<node id="7">-0.10606602,-0.10606602,0</node>
			<node id="8">-0.10606602,2.3299794e-09,0</node>
			<node id="9">-0.10606602,0.10606602,0</node>
			<node id="10">-0.10606602,0.21213204,0</node>
			<node id="11">2.3299794e-09,-0.21213203,0</node>
			<node id="12">2.3299794e-09,-0.10606602,0</node>
			<node id="13">2.3299794e-09,2.3299794e-09,0</node>
			<node id="14">2.3299794e-09,0.10606602,0</node>
			<node id="15">2.3299794e-09,0.21213204,0</node>
			<node id="16">0.10606602,-0.21213203,0</node>
			<node id="17">0.10606602,-0.10606602,0</node>
			<node id="18">0.10606602,2.3299794e-09,0</node>
			<node id="19">0.10606602,0.10606602,0</node>
			<node id="20">0.10606602,0.21213204,0</node>
<!-- ... 2067 like lines cut -->
		</Nodes>
		<Elements type="hex8" name="Part36">
			<elem id="1">1,6,7,2,90,95,96,91</elem>
			<elem id="2">2,7,8,3,91,96,97,92</elem>
			<elem id="3">3,8,9,4,92,97,98,93</elem>
			<elem id="4">4,9,10,5,93,98,99,94</elem>
			<elem id="5">6,11,12,7,95,100,101,96</elem>
			<elem id="6">7,12,13,8,96,101,102,97</elem>
			<elem id="7">8,13,14,9,97,102,103,98</elem>
			<elem id="8">9,14,15,10,98,103,104,99</elem>
			<elem id="9">11,16,17,12,100,105,106,101</elem>
			<elem id="10">12,17,18,13,101,106,107,102</elem>
			<elem id="11">13,18,19,14,102,107,108,103</elem>
			<elem id="12">14,19,20,15,103,108,109,104</elem>
			<elem id="13">16,21,22,17,105,110,111,106</elem>
			<elem id="14">17,22,23,18,106,111,112,107</elem>
			<elem id="15">18,23,24,19,107,112,113,108</elem>
			<elem id="16">19,24,25,20,108,113,114,109</elem>
			<elem id="17">5,26,30,4,94,115,119,93</elem>
			<elem id="18">26,27,31,30,115,116,120,119</elem>
			<elem id="19">27,28,32,31,116,117,121,120</elem>
			<elem id="20">28,29,33,32,117,118,122,121</elem>
<!-- ... 1580 like lines cut -->
		</Elements>
		<Elements type="quad4" name="Part37">
			<elem id="1601">1877,1870,1871,1878</elem>
			<elem id="1602">1870,1919,1920,1871</elem>
			<elem id="1603">1877,1926,1919,1870</elem>
			<elem id="1604">1878,1871,1872,1879</elem>
			<elem id="1605">1871,1920,1921,1872</elem>
			<elem id="1606">1879,1872,1873,1880</elem>
			<elem id="1607">1872,1921,1922,1873</elem>
			<elem id="1608">1880,1873,1874,1881</elem>
			<elem id="1609">1873,1922,1923,1874</elem>
			<elem id="1610">1881,1874,1875,1882</elem>
			<elem id="1611">1874,1923,1924,1875</elem>
			<elem id="1612">1882,1875,1876,1883</elem>
			<elem id="1613">1875,1924,1925,1876</elem>
			<elem id="1614">1876,1925,1927,1883</elem>
			<elem id="1615">1884,1877,1878,1885</elem>
			<elem id="1616">1884,1928,1926,1877</elem>
			<elem id="1617">1885,1878,1879,1886</elem>
			<elem id="1618">1886,1879,1880,1887</elem>
			<elem id="1619">1887,1880,1881,1888</elem>
			<elem id="1620">1888,1881,1882,1889</elem>
<!-- ... 196 like lines cut -->
		</Elements>
		<NodeSet name="FixedDisplacement01">
			1781, 1782, 1783, 1784, 1785, 1786, 1787, 1788,
			1789, 1790, 1791, 1792, 1793, 1794, 1795, 1796,
			1797, 1798, 1799, 1800, 1801, 1802, 1803, 1804,
			1805, 1806, 1807, 1808, 1809, 1810, 1811, 1812,
			1813, 1814, 1815, 1816, 1817, 1818, 1819, 1820,
			1821, 1822, 1823, 1824, 1825, 1826, 1827, 1828,
			1829, 1830, 1831, 1832, 1833, 1834, 1835, 1836,
			1837, 1838, 1839, 1840, 1841, 1842, 1843, 1844,
			1845, 1846, 1847, 1848, 1849, 1850, 1851, 1852,
			1853, 1854, 1855, 1856, 1857, 1858, 1859, 1860,
			1861, 1862, 1863, 1864, 1865, 1866, 1867, 1868,
			1869
		</NodeSet>
		<NodeSet name="FixedDisplacement02">
			1781, 1782, 1783, 1784, 1785, 1786, 1787, 1788,
			1789, 1790, 1791, 1792, 1793, 1794, 1795, 1796,
			1797, 1798, 1799, 1800, 1801, 1802, 1803, 1804,
			1805, 1806, 1807, 1808, 1809, 1810, 1811, 1812,
			1813, 1814, 1815, 1816, 1817, 1818, 1819, 1820,
			1821, 1822, 1823, 1824, 1825, 1826, 1827, 1828,
			1829, 1830, 1831, 1832, 1833, 1834, 1835, 1836,
			1837, 1838, 1839, 1840, 1841, 1842, 1843, 1844,
			1845, 1846, 1847, 1848, 1849, 1850, 1851, 1852,
			1853, 1854, 1855, 1856, 1857, 1858, 1859, 1860,
			1861, 1862, 1863, 1864, 1865, 1866, 1867, 1868,
			1869
		</NodeSet>
		<NodeSet name="FixedDisplacement03">
			1781, 1782, 1783, 1784, 1785, 1786, 1787, 1788,
			1789, 1790, 1791, 1792, 1793, 1794, 1795, 1796,
			1797, 1798, 1799, 1800, 1801, 1802, 1803, 1804,
			1805, 1806, 1807, 1808, 1809, 1810, 1811, 1812,
			1813, 1814, 1815, 1816, 1817, 1818, 1819, 1820,
			1821, 1822, 1823, 1824, 1825, 1826, 1827, 1828,
			1829, 1830, 1831, 1832, 1833, 1834, 1835, 1836,
			1837, 1838, 1839, 1840, 1841, 1842, 1843, 1844,
			1845, 1846, 1847, 1848, 1849, 1850, 1851, 1852,
			1853, 1854, 1855, 1856, 1857, 1858, 1859, 1860,
			1861, 1862, 1863, 1864, 1865, 1866, 1867, 1868,
			1869
		</NodeSet>
		<NodeSet name="RigidNodeset 1">
			1, 2, 3, 4, 5, 6, 7, 8,
			9, 10, 11, 12, 13, 14, 15, 16,
			17, 18, 19, 20, 21, 22, 23, 24,
			25, 26, 27, 28, 29, 30, 31, 32,
			33, 34, 35, 36, 37, 38, 39, 40,
			41, 42, 43, 44, 45, 46, 47, 48,
			49, 50, 51, 52, 53, 54, 55, 56,
			57, 58, 59, 60, 61, 62, 63, 64,
			65, 66, 67, 68, 69, 70, 71, 72,
			73, 74, 75, 76, 77, 78, 79, 80,
			81, 82, 83, 84, 85, 86, 87, 88,
			89
		</NodeSet>
		<ElementSet name="unnamed_set01">
			1587
		</ElementSet>
	</Mesh>
	<MeshDomains>
		<SolidDomain name="Part36" mat="Material 1"/>
		<ShellDomain name="Part37" mat="Material 2">
			<shell_thickness>0</shell_thickness>
		</ShellDomain>
	</MeshDomains>
	<Boundary>
		<bc name="FixedDisplacement01" node_set="FixedDisplacement01" type="zero displacement">
			<x_dof>0</x_dof>
			<y_dof>0</y_dof>
			<z_dof>1</z_dof>
		</bc>
		<bc name="FixedDisplacement02" node_set="FixedDisplacement02" type="zero displacement">
			<x_dof>0</x_dof>
			<y_dof>1</y_dof>
			<z_dof>0</z_dof>
		</bc>
		<bc name="FixedDisplacement03" node_set="FixedDisplacement03" type="zero displacement">
			<x_dof>1</x_dof>
			<y_dof>0</y_dof>
			<z_dof>0</z_dof>
		</bc>
		<bc name="RigidInterface02" node_set="RigidNodeset 1" type="rigid">
			<rb>Material 2</rb>
			<clamp_shells>1</clamp_shells>
		</bc>
	</Boundary>
	<Rigid>
		<rigid_bc name="RigidFixed115" type="rigid_fixed">
			<rb>Material 2</rb>
			<Rx_dof>1</Rx_dof>
			<Ry_dof>1</Ry_dof>
			<Rz_dof>0</Rz_dof>
			<Ru_dof>1</Ru_dof>
			<Rv_dof>1</Rv_dof>
			<Rw_dof>1</Rw_dof>
		</rigid_bc>
		<rigid_bc name="RigidDisplacement43" type="rigid_displacement">
			<rb>Material 2</rb>
			<dof>z</dof>
			<value lc="1">1</value>
			<relative>0</relative>
		</rigid_bc>
	</Rigid>
	<LoadData>
		<load_controller id="1" name="LC1" type="loadcurve">
			<interpolate>LINEAR</interpolate>
			<extend>CONSTANT</extend>
			<points>
				<pt>0,0</pt>
				<pt>1,-1</pt>
			</points>
		</load_controller>
	</LoadData>
	<Output>
		<plotfile type="febio">
			<var type="displacement"/>
			<var type="stress"/>
		</plotfile>
	</Output>
</febio_spec>
