<?xml version="1.0" encoding="ISO-8859-1"?>
<!--
A shell disk is constrained in x,y,z on the edges and has a pressure of 0 units
at time t=0 to 0.005 units at time t=1.
-->
<febio_spec version="4.0">
	<Module type="solid"/>
	<Control>
		<analysis>STATIC</analysis>
		<time_steps>100</time_steps>
		<step_size>0.01</step_size>
		<plot_zero_state>0</plot_zero_state>
		<plot_range>0,-1</plot_range>
		<plot_level>PLOT_MAJOR_ITRS</plot_level>
		<output_level>OUTPUT_MAJOR_ITRS</output_level>
		<plot_stride>1</plot_stride>
		<adaptor_re_solve>1</adaptor_re_solve>
		<time_stepper type="default">
			<max_retries>5</max_retries>
			<opt_iter>10</opt_iter>
			<dtmin>0.01</dtmin>
			<dtmax>0.1</dtmax>
			<aggressiveness>0</aggressiveness>
			<cutback>0.5</cutback>
			<dtforce>0</dtforce>
		</time_stepper>
		<solver type="solid">
			<symmetric_stiffness>symmetric</symmetric_stiffness>
			<equation_scheme>staggered</equation_scheme>
			<equation_order>default</equation_order>
			<optimize_bw>0</optimize_bw>
			<lstol>0.9</lstol>
			<lsmin>0.01</lsmin>
			<lsiter>5</lsiter>
			<max_refs>15</max_refs>
			<check_zero_diagonal>0</check_zero_diagonal>
			<zero_diagonal_tol>0</zero_diagonal_tol>
			<force_partition>0</force_partition>
			<reform_each_time_step>1</reform_each_time_step>
			<reform_augment>0</reform_augment>
			<diverge_reform>1</diverge_reform>
			<min_residual>1e-20</min_residual>
			<max_residual>0</max_residual>
			<dtol>0.001</dtol>
			<etol>0.01</etol>
			<rtol>0</rtol>
			<rhoi>-2</rhoi>
			<alpha>1</alpha>
			<beta>0.25</beta>
			<gamma>0.5</gamma>
			<logSolve>0</logSolve>
			<arc_length>0</arc_length>
			<arc_length_scale>0</arc_length_scale>
			<qn_method type="BFGS">
				<max_ups>10</max_ups>
				<max_buffer_size>0</max_buffer_size>
				<cycle_buffer>1</cycle_buffer>
				<cmax>100000</cmax>
			</qn_method>
		</solver>
	</Control>
	<Globals>
		<Constants>
			<T>0</T>
			<R>0</R>
			<Fc>0</Fc>
		</Constants>
	</Globals>
	<Material>
		<material id="1" name="Material 1" type="neo-Hookean">
			<density>1</density>
			<E>1</E>
			<v>0.45</v>
		</material>
	</Material>
	<Mesh>
		<Nodes name="Object01">
			<node id="1">-0.31819805,-0.31819805,0</node>
			<node id="2">-0.33647104,-0.22431403,0</node>
			<node id="3">-0.34537541,-0.11512514,0</node>
			<node id="4">-0.34785349,0,0</node>
			<node id="5">-0.34537541,0.11512514,0</node>
			<node id="6">-0.33647104,0.22431403,0</node>
			<node id="7">-0.31819805,0.31819805,0</node>
			<node id="8">-0.22431403,-0.33647104,0</node>
			<node id="9">-0.23334524,-0.23334524,0</node>
			<node id="10">-0.23592706,-0.11796353,0</node>
			<node id="11">-0.23591883,0,0</node>
			<node id="12">-0.23592706,0.11796353,0</node>
			<node id="13">-0.23334524,0.23334524,0</node>
			<node id="14">-0.22431403,0.33647104,0</node>
			<node id="15">-0.11512514,-0.34537541,0</node>
			<node id="16">-0.11796353,-0.23592706,0</node>
			<node id="17">-0.11667262,-0.11667262,0</node>
			<node id="18">-0.11466437,0,0</node>
			<node id="19">-0.11667262,0.11667262,0</node>
			<node id="20">-0.11796353,0.23592706,0</node>
<!-- ... 173 like lines cut -->
		</Nodes>
		<Elements type="quad4" name="Part41">
			<elem id="1">1,8,9,2</elem>
			<elem id="2">8,15,16,9</elem>
			<elem id="3">15,22,23,16</elem>
			<elem id="4">22,29,30,23</elem>
			<elem id="5">29,36,37,30</elem>
			<elem id="6">36,43,44,37</elem>
			<elem id="7">2,9,10,3</elem>
			<elem id="8">9,16,17,10</elem>
			<elem id="9">16,23,24,17</elem>
			<elem id="10">23,30,31,24</elem>
			<elem id="11">30,37,38,31</elem>
			<elem id="12">37,44,45,38</elem>
			<elem id="13">3,10,11,4</elem>
			<elem id="14">10,17,18,11</elem>
			<elem id="15">17,24,25,18</elem>
			<elem id="16">24,31,32,25</elem>
			<elem id="17">31,38,39,32</elem>
			<elem id="18">38,45,46,39</elem>
			<elem id="19">4,11,12,5</elem>
			<elem id="20">11,18,19,12</elem>
<!-- ... 160 like lines cut -->
		</Elements>
		<NodeSet name="FixedShellDisplacement01">
			4, 11, 18, 25, 32, 39, 46, 52,
			64, 76, 88, 100, 112, 124, 136, 148,
			160, 172, 184
		</NodeSet>
		<NodeSet name="FixedDisplacement01">
			4, 11, 18, 25, 32, 39, 46, 52,
			64, 76, 88, 100, 112, 124, 136, 148,
			160, 170, 171, 172, 173, 174, 175, 176,
			177, 178, 179, 180, 181, 182, 183, 184,
			185, 186, 187, 188, 189, 190, 191, 192,
			193
		</NodeSet>
		<NodeSet name="FixedShellDisplacement02">
			22, 23, 24, 25, 26, 27, 28, 58,
			70, 82, 94, 106, 118, 130, 142, 154,
			166, 178, 190
		</NodeSet>
		<NodeSet name="FixedDisplacement02">
			22, 23, 24, 25, 26, 27, 28, 58,
			70, 82, 94, 106, 118, 130, 142, 154,
			166, 170, 171, 172, 173, 174, 175, 176,
			177, 178, 179, 180, 181, 182, 183, 184,
			185, 186, 187, 188, 189, 190, 191, 192,
			193
		</NodeSet>
		<NodeSet name="FixedDisplacement03">
			170, 171, 172, 173, 174, 175, 176, 177,
			178, 179, 180, 181, 182, 183, 184, 185,
			186, 187, 188, 189, 190, 191, 192, 193
		</NodeSet>
		<Surface name="surface01">
			<quad4 id="1">1,8,9,2</quad4>
			<quad4 id="2">8,15,16,9</quad4>
			<quad4 id="3">15,22,23,16</quad4>
			<quad4 id="4">22,29,30,23</quad4>
			<quad4 id="5">29,36,37,30</quad4>
			<quad4 id="6">36,43,44,37</quad4>
			<quad4 id="7">2,9,10,3</quad4>
			<quad4 id="8">9,16,17,10</quad4>
			<quad4 id="9">16,23,24,17</quad4>
			<quad4 id="10">23,30,31,24</quad4>
			<quad4 id="11">30,37,38,31</quad4>
			<quad4 id="12">37,44,45,38</quad4>
			<quad4 id="13">3,10,11,4</quad4>
			<quad4 id="14">10,17,18,11</quad4>
			<quad4 id="15">17,24,25,18</quad4>
			<quad4 id="16">24,31,32,25</quad4>
			<quad4 id="17">31,38,39,32</quad4>
			<quad4 id="18">38,45,46,39</quad4>
			<quad4 id="19">4,11,12,5</quad4>
			<quad4 id="20">11,18,19,12</quad4>
<!-- ... 160 like lines cut -->
		</Surface>
		<ElementSet name="unnamed_set01">
			22
		</ElementSet>
	</Mesh>
	<MeshDomains>
		<ShellDomain name="Part41" mat="Material 1">
			<shell_thickness>0</shell_thickness>
		</ShellDomain>
	</MeshDomains>
	<MeshData>
		<ElementData type="shell thickness" elem_set="Part41">
			<e lid="1">0.01,0.01,0.01,0.01</e>
			<e lid="2">0.01,0.01,0.01,0.01</e>
			<e lid="3">0.01,0.01,0.01,0.01</e>
			<e lid="4">0.01,0.01,0.01,0.01</e>
			<e lid="5">0.01,0.01,0.01,0.01</e>
			<e lid="6">0.01,0.01,0.01,0.01</e>
			<e lid="7">0.01,0.01,0.01,0.01</e>
			<e lid="8">0.01,0.01,0.01,0.01</e>
			<e lid="9">0.01,0.01,0.01,0.01</e>
			<e lid="10">0.01,0.01,0.01,0.01</e>
			<e lid="11">0.01,0.01,0.01,0.01</e>
			<e lid="12">0.01,0.01,0.01,0.01</e>
			<e lid="13">0.01,0.01,0.01,0.01</e>
			<e lid="14">0.01,0.01,0.01,0.01</e>
			<e lid="15">0.01,0.01,0.01,0.01</e>
			<e lid="16">0.01,0.01,0.01,0.01</e>
			<e lid="17">0.01,0.01,0.01,0.01</e>
			<e lid="18">0.01,0.01,0.01,0.01</e>
			<e lid="19">0.01,0.01,0.01,0.01</e>
			<e lid="20">0.01,0.01,0.01,0.01</e>
<!-- ... 160 like lines cut -->
		</ElementData>
	</MeshData>
	<Boundary>
		<bc name="FixedShellDisplacement01" node_set="FixedShellDisplacement01" type="zero shell displacement">
			<sx_dof>0</sx_dof>
			<sy_dof>1</sy_dof>
			<sz_dof>0</sz_dof>
		</bc>
		<bc name="FixedDisplacement01" node_set="FixedDisplacement01" type="zero displacement">
			<x_dof>0</x_dof>
			<y_dof>1</y_dof>
			<z_dof>0</z_dof>
		</bc>
		<bc name="FixedShellDisplacement02" node_set="FixedShellDisplacement02" type="zero shell displacement">
			<sx_dof>1</sx_dof>
			<sy_dof>0</sy_dof>
			<sz_dof>0</sz_dof>
		</bc>
		<bc name="FixedDisplacement02" node_set="FixedDisplacement02" type="zero displacement">
			<x_dof>1</x_dof>
			<y_dof>0</y_dof>
			<z_dof>0</z_dof>
		</bc>
		<bc name="FixedDisplacement03" node_set="FixedDisplacement03" type="zero displacement">
			<x_dof>0</x_dof>
			<y_dof>0</y_dof>
			<z_dof>1</z_dof>
		</bc>
	</Boundary>
	<Loads>
		<surface_load name="PressureLoad1" surface="surface01" type="pressure">
			<pressure lc="1">1</pressure>
			<symmetric_stiffness>1</symmetric_stiffness>
			<linear>0</linear>
			<shell_bottom>0</shell_bottom>
		</surface_load>
	</Loads>
	<LoadData>
		<load_controller id="1" name="LC1" type="loadcurve">
			<interpolate>LINEAR</interpolate>
			<extend>CONSTANT</extend>
			<points>
				<pt>0,0</pt>
				<pt>1,-0.005</pt>
			</points>
		</load_controller>
	</LoadData>
	<Output>
		<plotfile type="febio">
			<var type="displacement"/>
			<var type="stress"/>
		</plotfile>
	</Output>
</febio_spec>
