<?xml version="1.0" encoding="ISO-8859-1"?>
<!--
Shell verification problem.  Compare to analytical solution by Batoz.
A 4x8 quad8 element shell sheet is twisted by constraining one end and applying
equal but opposite forces of 1 N to the corners of the nonconstrained end.
-->
<febio_spec version="4.0">
	<Module type="solid"/>
	<Control>
		<analysis>STATIC</analysis>
		<time_steps>10</time_steps>
		<step_size>0.1</step_size>
		<plot_zero_state>0</plot_zero_state>
		<plot_range>0,-1</plot_range>
		<plot_level>PLOT_MAJOR_ITRS</plot_level>
		<output_level>OUTPUT_MAJOR_ITRS</output_level>
		<plot_stride>1</plot_stride>
		<adaptor_re_solve>1</adaptor_re_solve>
		<time_stepper type="default">
			<max_retries>5</max_retries>
			<opt_iter>10</opt_iter>
			<dtmin>0.01</dtmin>
			<dtmax>0.1</dtmax>
			<aggressiveness>0</aggressiveness>
			<cutback>0.5</cutback>
			<dtforce>0</dtforce>
		</time_stepper>
		<solver type="solid">
			<symmetric_stiffness>symmetric</symmetric_stiffness>
			<equation_scheme>staggered</equation_scheme>
			<equation_order>default</equation_order>
			<optimize_bw>0</optimize_bw>
			<lstol>0.9</lstol>
			<lsmin>0.01</lsmin>
			<lsiter>5</lsiter>
			<max_refs>15</max_refs>
			<check_zero_diagonal>0</check_zero_diagonal>
			<zero_diagonal_tol>0</zero_diagonal_tol>
			<force_partition>0</force_partition>
			<reform_each_time_step>1</reform_each_time_step>
			<reform_augment>0</reform_augment>
			<diverge_reform>1</diverge_reform>
			<min_residual>1e-20</min_residual>
			<max_residual>0</max_residual>
			<dtol>0.001</dtol>
			<etol>0.01</etol>
			<rtol>0</rtol>
			<rhoi>-2</rhoi>
			<alpha>1</alpha>
			<beta>0.25</beta>
			<gamma>0.5</gamma>
			<logSolve>0</logSolve>
			<arc_length>0</arc_length>
			<arc_length_scale>0</arc_length_scale>
			<qn_method type="BFGS">
				<max_ups>0</max_ups>
				<max_buffer_size>0</max_buffer_size>
				<cycle_buffer>1</cycle_buffer>
				<cmax>100000</cmax>
			</qn_method>
		</solver>
	</Control>
	<Globals>
		<Constants>
			<T>0</T>
			<R>0</R>
			<Fc>0</Fc>
		</Constants>
	</Globals>
	<Material>
		<material id="1" name="St-Venant Kirchhoff" type="isotropic elastic">
			<density>1</density>
			<E>1e+07</E>
			<v>0.25</v>
		</material>
	</Material>
	<Mesh>
		<Nodes name="Object01">
			<node id="1">-1,-0.5,0</node>
			<node id="2">-1,-0.25,0</node>
			<node id="3">-1,0,0</node>
			<node id="4">-1,0.25,0</node>
			<node id="5">-1,0.5,0</node>
			<node id="6">-0.75,-0.5,0</node>
			<node id="7">-0.75,-0.25,0</node>
			<node id="8">-0.75,0,0</node>
			<node id="9">-0.75,0.25,0</node>
			<node id="10">-0.75,0.5,0</node>
			<node id="11">-0.5,-0.5,0</node>
			<node id="12">-0.5,-0.25,0</node>
			<node id="13">-0.5,0,0</node>
			<node id="14">-0.5,0.25,0</node>
			<node id="15">-0.5,0.5,0</node>
			<node id="16">-0.25,-0.5,0</node>
			<node id="17">-0.25,-0.25,0</node>
			<node id="18">-0.25,0,0</node>
			<node id="19">-0.25,0.25,0</node>
			<node id="20">-0.25,0.5,0</node>
<!-- ... 133 like lines cut -->
		</Nodes>
		<Elements type="tri6" name="Part2">
			<elem id="1">1,6,7,47,59,46</elem>
			<elem id="2">1,7,2,46,49,48</elem>
			<elem id="3">2,7,8,49,62,50</elem>
			<elem id="4">2,8,3,50,52,51</elem>
			<elem id="5">3,8,9,52,65,53</elem>
			<elem id="6">3,9,4,53,55,54</elem>
			<elem id="7">4,9,10,55,68,56</elem>
			<elem id="8">4,10,5,56,58,57</elem>
			<elem id="9">6,11,12,60,72,61</elem>
			<elem id="10">6,12,7,61,63,59</elem>
			<elem id="11">7,12,13,63,75,64</elem>
			<elem id="12">7,13,8,64,66,62</elem>
			<elem id="13">8,13,14,66,78,67</elem>
			<elem id="14">8,14,9,67,69,65</elem>
			<elem id="15">9,14,15,69,81,70</elem>
			<elem id="16">9,15,10,70,71,68</elem>
			<elem id="17">11,16,17,74,85,73</elem>
			<elem id="18">11,17,12,73,76,72</elem>
			<elem id="19">12,17,18,76,88,77</elem>
			<elem id="20">12,18,13,77,79,75</elem>
<!-- ... 44 like lines cut -->
		</Elements>
		<NodeSet name="FixedDisplacement01">
			1, 2, 3, 4, 5, 48, 51, 54,
			57
		</NodeSet>
		<NodeSet name="FixedShellDisplacement01">
			1, 2, 3, 4, 5, 48, 51, 54,
			57
		</NodeSet>
		<NodeSet name="ForceNodeset01">
			45
		</NodeSet>
		<NodeSet name="ForceNodeset02">
			41
		</NodeSet>
		<ElementSet name="unnamed_set01">
			1
		</ElementSet>
	</Mesh>
	<MeshDomains>
		<ShellDomain name="Part2" mat="St-Venant Kirchhoff">
			<shell_thickness>0</shell_thickness>
		</ShellDomain>
	</MeshDomains>
	<MeshData>
		<ElementData type="shell thickness" elem_set="Part2">
			<e lid="1">0.05,0.05,0.05,0.05,0.05,0.05</e>
			<e lid="2">0.05,0.05,0.05,0.05,0.05,0.05</e>
			<e lid="3">0.05,0.05,0.05,0.05,0.05,0.05</e>
			<e lid="4">0.05,0.05,0.05,0.05,0.05,0.05</e>
			<e lid="5">0.05,0.05,0.05,0.05,0.05,0.05</e>
			<e lid="6">0.05,0.05,0.05,0.05,0.05,0.05</e>
			<e lid="7">0.05,0.05,0.05,0.05,0.05,0.05</e>
			<e lid="8">0.05,0.05,0.05,0.05,0.05,0.05</e>
			<e lid="9">0.05,0.05,0.05,0.05,0.05,0.05</e>
			<e lid="10">0.05,0.05,0.05,0.05,0.05,0.05</e>
			<e lid="11">0.05,0.05,0.05,0.05,0.05,0.05</e>
			<e lid="12">0.05,0.05,0.05,0.05,0.05,0.05</e>
			<e lid="13">0.05,0.05,0.05,0.05,0.05,0.05</e>
			<e lid="14">0.05,0.05,0.05,0.05,0.05,0.05</e>
			<e lid="15">0.05,0.05,0.05,0.05,0.05,0.05</e>
			<e lid="16">0.05,0.05,0.05,0.05,0.05,0.05</e>
			<e lid="17">0.05,0.05,0.05,0.05,0.05,0.05</e>
			<e lid="18">0.05,0.05,0.05,0.05,0.05,0.05</e>
			<e lid="19">0.05,0.05,0.05,0.05,0.05,0.05</e>
			<e lid="20">0.05,0.05,0.05,0.05,0.05,0.05</e>
<!-- ... 44 like lines cut -->
		</ElementData>
	</MeshData>
	<Boundary>
		<bc name="FixedDisplacement01" node_set="FixedDisplacement01" type="zero displacement">
			<x_dof>1</x_dof>
			<y_dof>1</y_dof>
			<z_dof>1</z_dof>
		</bc>
		<bc name="FixedShellDisplacement01" node_set="FixedShellDisplacement01" type="zero shell displacement">
			<sx_dof>1</sx_dof>
			<sy_dof>1</sy_dof>
			<sz_dof>1</sz_dof>
		</bc>
	</Boundary>
	<Loads>
		<nodal_load name="ForceLoad01" node_set="ForceNodeset01" type="nodal_force">
			<relative>0</relative>
			<value lc="1">0,0,1</value>
			<shell_bottom>0</shell_bottom>
		</nodal_load>
		<nodal_load name="ForceLoad02" node_set="ForceNodeset02" type="nodal_force">
			<relative>0</relative>
			<value lc="2">0,0,-1</value>
			<shell_bottom>0</shell_bottom>
		</nodal_load>
	</Loads>
	<LoadData>
		<load_controller id="1" name="LC1" type="loadcurve">
			<interpolate>SMOOTH</interpolate>
			<extend>CONSTANT</extend>
			<points>
				<pt>0,0</pt>
				<pt>1,1</pt>
			</points>
		</load_controller>
		<load_controller id="2" name="LC2" type="loadcurve">
			<interpolate>SMOOTH</interpolate>
			<extend>CONSTANT</extend>
			<points>
				<pt>0,0</pt>
				<pt>1,1</pt>
			</points>
		</load_controller>
	</LoadData>
	<Output>
		<plotfile type="febio">
			<var type="displacement"/>
			<var type="reaction forces"/>
			<var type="shell director"/>
			<var type="Lagrange strain"/>
			<var type="shell thickness"/>
			<var type="stress"/>
		</plotfile>
		<logfile>
			<element_data data="sx" elem_set="unnamed_set01"/>
		</logfile>
	</Output>
</febio_spec>
