<?xml version="1.0" encoding="ISO-8859-1"?>
<!--
Strip(20node hex) with shell(quad8) constrained with rigid box is pulled off from 
a rigid surface using sticky contact.
Rigid box is prescribed z displacement of 4 at t=1.
-->
<febio_spec version="4.0">
	<Module type="solid"/>
	<Control>
		<analysis>STATIC</analysis>
		<time_steps>100</time_steps>
		<step_size>0.01</step_size>
		<plot_zero_state>0</plot_zero_state>
		<plot_range>0,-1</plot_range>
		<plot_level>PLOT_MAJOR_ITRS</plot_level>
		<output_level>OUTPUT_MAJOR_ITRS</output_level>
		<plot_stride>1</plot_stride>
		<adaptor_re_solve>1</adaptor_re_solve>
		<time_stepper type="default">
			<max_retries>5</max_retries>
			<opt_iter>10</opt_iter>
			<dtmin>0.01</dtmin>
			<dtmax lc="1">0</dtmax>
			<aggressiveness>0</aggressiveness>
			<cutback>0.5</cutback>
			<dtforce>0</dtforce>
		</time_stepper>
		<solver type="solid">
			<symmetric_stiffness>symmetric</symmetric_stiffness>
			<equation_scheme>staggered</equation_scheme>
			<equation_order>default</equation_order>
			<optimize_bw>0</optimize_bw>
			<lstol>0.9</lstol>
			<lsmin>0.01</lsmin>
			<lsiter>5</lsiter>
			<max_refs>15</max_refs>
			<check_zero_diagonal>0</check_zero_diagonal>
			<zero_diagonal_tol>0</zero_diagonal_tol>
			<force_partition>0</force_partition>
			<reform_each_time_step>1</reform_each_time_step>
			<reform_augment>0</reform_augment>
			<diverge_reform>1</diverge_reform>
			<min_residual>1e-20</min_residual>
			<max_residual>0</max_residual>
			<dtol>0.001</dtol>
			<etol>0.01</etol>
			<rtol>0</rtol>
			<rhoi>-2</rhoi>
			<alpha>1</alpha>
			<beta>0.25</beta>
			<gamma>0.5</gamma>
			<logSolve>0</logSolve>
			<arc_length>0</arc_length>
			<arc_length_scale>0</arc_length_scale>
			<qn_method type="BFGS">
				<max_ups>0</max_ups>
				<max_buffer_size>0</max_buffer_size>
				<cycle_buffer>1</cycle_buffer>
				<cmax>100000</cmax>
			</qn_method>
		</solver>
	</Control>
	<Globals>
		<Constants>
			<T>293</T>
			<R>0.008314</R>
			<Fc>0.0965</Fc>
		</Constants>
	</Globals>
	<Material>
		<material id="1" name="shell1" type="rigid body">
			<density>1</density>
			<E>1</E>
			<v>0</v>
		</material>
		<material id="2" name="shell2" type="neo-Hookean">
			<density>1</density>
			<E>1</E>
			<v>0.4</v>
		</material>
		<material id="3" name="box1" type="neo-Hookean">
			<density>1</density>
			<E>1</E>
			<v>0.4</v>
		</material>
		<material id="4" name="box2" type="rigid body">
			<density>1</density>
			<E>1</E>
			<v>0</v>
			<center_of_mass>4,0,0.5</center_of_mass>
		</material>
	</Material>
	<Mesh>
		<Nodes name="Object01">
			<node id="1">-5,-5,0</node>
			<node id="2">-5,5,0</node>
			<node id="3">5,-5,0</node>
			<node id="4">5,5,0</node>
			<node id="5">0,-5,0</node>
			<node id="6">-5,0,0</node>
			<node id="7">0,5,0</node>
			<node id="8">5,0,0</node>
			<node id="9">-4.5,-0.5,0</node>
			<node id="10">-4.5,-0.5,0.125</node>
			<node id="11">-4.5,-0.5,0.25</node>
			<node id="12">-4.5,-0.5,0.375</node>
			<node id="13">-4.5,-0.5,0.5</node>
			<node id="14">-4.5,-0.33333333,0</node>
			<node id="15">-4.5,-0.33333333,0.25</node>
			<node id="16">-4.5,-0.33333333,0.5</node>
			<node id="17">-4.5,-0.16666667,0</node>
			<node id="18">-4.5,-0.16666667,0.125</node>
			<node id="19">-4.5,-0.16666667,0.25</node>
			<node id="20">-4.5,-0.16666667,0.375</node>
<!-- ... 1050 like lines cut -->
		</Nodes>
		<Elements type="quad8" name="Part1">
			<elem id="1">1,3,4,2,5,8,7,6</elem>
		</Elements>
		<Elements type="hex20" name="Part2">
			<elem id="2">9,50,58,17,11,52,60,19,38,55,41,14,39,56,42,15,10,51,59,18</elem>
			<elem id="3">11,52,60,19,13,54,62,21,39,56,42,15,40,57,43,16,12,53,61,20</elem>
			<elem id="4">17,58,66,25,19,60,68,27,41,63,44,22,42,64,45,23,18,59,67,26</elem>
			<elem id="5">19,60,68,27,21,62,70,29,42,64,45,23,43,65,46,24,20,61,69,28</elem>
			<elem id="6">25,66,74,33,27,68,76,35,44,71,47,30,45,72,48,31,26,67,75,34</elem>
			<elem id="7">27,68,76,35,29,70,78,37,45,72,48,31,46,73,49,32,28,69,77,36</elem>
			<elem id="8">50,91,99,58,52,93,101,60,79,96,82,55,80,97,83,56,51,92,100,59</elem>
			<elem id="9">52,93,101,60,54,95,103,62,80,97,83,56,81,98,84,57,53,94,102,61</elem>
			<elem id="10">58,99,107,66,60,101,109,68,82,104,85,63,83,105,86,64,59,100,108,67</elem>
			<elem id="11">60,101,109,68,62,103,111,70,83,105,86,64,84,106,87,65,61,102,110,69</elem>
			<elem id="12">66,107,115,74,68,109,117,76,85,112,88,71,86,113,89,72,67,108,116,75</elem>
			<elem id="13">68,109,117,76,70,111,119,78,86,113,89,72,87,114,90,73,69,110,118,77</elem>
			<elem id="14">91,132,140,99,93,134,142,101,120,137,123,96,121,138,124,97,92,133,141,100</elem>
			<elem id="15">93,134,142,101,95,136,144,103,121,138,124,97,122,139,125,98,94,135,143,102</elem>
			<elem id="16">99,140,148,107,101,142,150,109,123,145,126,104,124,146,127,105,100,141,149,108</elem>
			<elem id="17">101,142,150,109,103,144,152,111,124,146,127,105,125,147,128,106,102,143,151,110</elem>
			<elem id="18">107,148,156,115,109,150,158,117,126,153,129,112,127,154,130,113,108,149,157,116</elem>
			<elem id="19">109,150,158,117,111,152,160,119,127,154,130,113,128,155,131,114,110,151,159,118</elem>
			<elem id="20">132,173,181,140,134,175,183,142,161,178,164,137,162,179,165,138,133,174,182,141</elem>
			<elem id="21">134,175,183,142,136,177,185,144,162,179,165,138,163,180,166,139,135,176,184,143</elem>
<!-- ... 130 like lines cut -->
		</Elements>
		<Elements type="quad8" name="Part3">
			<elem id="152">25,33,74,66,30,47,71,44</elem>
			<elem id="153">17,25,66,58,22,44,63,41</elem>
			<elem id="154">9,17,58,50,14,41,55,38</elem>
			<elem id="155">66,74,115,107,71,88,112,85</elem>
			<elem id="156">58,66,107,99,63,85,104,82</elem>
			<elem id="157">50,58,99,91,55,82,96,79</elem>
			<elem id="158">107,115,156,148,112,129,153,126</elem>
			<elem id="159">99,107,148,140,104,126,145,123</elem>
			<elem id="160">91,99,140,132,96,123,137,120</elem>
			<elem id="161">148,156,197,189,153,170,194,167</elem>
			<elem id="162">140,148,189,181,145,167,186,164</elem>
			<elem id="163">132,140,181,173,137,164,178,161</elem>
			<elem id="164">189,197,238,230,194,211,235,208</elem>
			<elem id="165">181,189,230,222,186,208,227,205</elem>
			<elem id="166">173,181,222,214,178,205,219,202</elem>
			<elem id="167">230,238,279,271,235,252,276,249</elem>
			<elem id="168">222,230,271,263,227,249,268,246</elem>
			<elem id="169">214,222,263,255,219,246,260,243</elem>
			<elem id="170">271,279,320,312,276,293,317,290</elem>
			<elem id="171">263,271,312,304,268,290,309,287</elem>
<!-- ... 55 like lines cut -->
		</Elements>
		<Elements type="hex8" name="Part4">
			<elem id="227">1063,1067,1069,1065,1064,1068,1070,1066</elem>
		</Elements>
		<NodeSet name="RigidNodeset 1">
			915, 918, 923, 926, 931, 934, 939, 942,
			945, 948, 951, 956, 959, 964, 967, 972,
			975, 980, 983, 986, 989, 992, 997, 1000,
			1005, 1008, 1013, 1016, 1021, 1024, 1027, 1030,
			1033, 1038, 1041, 1046, 1049, 1054, 1057, 1062
		</NodeSet>
		<Surface name="PrimarySurface01">
			<quad8 id="1">9,17,58,50,14,41,55,38</quad8>
			<quad8 id="2">17,25,66,58,22,44,63,41</quad8>
			<quad8 id="3">25,33,74,66,30,47,71,44</quad8>
			<quad8 id="4">50,58,99,91,55,82,96,79</quad8>
			<quad8 id="5">58,66,107,99,63,85,104,82</quad8>
			<quad8 id="6">66,74,115,107,71,88,112,85</quad8>
			<quad8 id="7">91,99,140,132,96,123,137,120</quad8>
			<quad8 id="8">99,107,148,140,104,126,145,123</quad8>
			<quad8 id="9">107,115,156,148,112,129,153,126</quad8>
			<quad8 id="10">132,140,181,173,137,164,178,161</quad8>
			<quad8 id="11">140,148,189,181,145,167,186,164</quad8>
			<quad8 id="12">148,156,197,189,153,170,194,167</quad8>
			<quad8 id="13">173,181,222,214,178,205,219,202</quad8>
			<quad8 id="14">181,189,230,222,186,208,227,205</quad8>
			<quad8 id="15">189,197,238,230,194,211,235,208</quad8>
			<quad8 id="16">214,222,263,255,219,246,260,243</quad8>
			<quad8 id="17">222,230,271,263,227,249,268,246</quad8>
			<quad8 id="18">230,238,279,271,235,252,276,249</quad8>
			<quad8 id="19">255,263,304,296,260,287,301,284</quad8>
			<quad8 id="20">263,271,312,304,268,290,309,287</quad8>
<!-- ... 55 like lines cut -->
		</Surface>
		<Surface name="SecondarySurface01">
			<quad8 id="1">1,3,4,2,5,8,7,6</quad8>
		</Surface>
		<ElementSet name="unnamed_set01">
			46
		</ElementSet>
		<SurfacePair name="StickyInterface01">
			<primary>PrimarySurface01</primary>
			<secondary>SecondarySurface01</secondary>
		</SurfacePair>
	</Mesh>
	<MeshDomains>
		<ShellDomain name="Part1" mat="shell1">
			<shell_thickness>0</shell_thickness>
		</ShellDomain>
		<SolidDomain name="Part2" mat="box1"/>
		<ShellDomain name="Part3" mat="shell2">
			<shell_thickness>0</shell_thickness>
		</ShellDomain>
		<SolidDomain name="Part4" mat="box2"/>
	</MeshDomains>
	<MeshData>
		<ElementData type="shell thickness" elem_set="Part1">
			<e lid="1">0.01,0.01,0.01,0.01,0.01,0.01,0.01,0.01</e>
		</ElementData>
		<ElementData type="shell thickness" elem_set="Part3">
			<e lid="1">0.01,0.01,0.01,0.01,0.01,0.01,0.01,0.01</e>
			<e lid="2">0.01,0.01,0.01,0.01,0.01,0.01,0.01,0.01</e>
			<e lid="3">0.01,0.01,0.01,0.01,0.01,0.01,0.01,0.01</e>
			<e lid="4">0.01,0.01,0.01,0.01,0.01,0.01,0.01,0.01</e>
			<e lid="5">0.01,0.01,0.01,0.01,0.01,0.01,0.01,0.01</e>
			<e lid="6">0.01,0.01,0.01,0.01,0.01,0.01,0.01,0.01</e>
			<e lid="7">0.01,0.01,0.01,0.01,0.01,0.01,0.01,0.01</e>
			<e lid="8">0.01,0.01,0.01,0.01,0.01,0.01,0.01,0.01</e>
			<e lid="9">0.01,0.01,0.01,0.01,0.01,0.01,0.01,0.01</e>
			<e lid="10">0.01,0.01,0.01,0.01,0.01,0.01,0.01,0.01</e>
			<e lid="11">0.01,0.01,0.01,0.01,0.01,0.01,0.01,0.01</e>
			<e lid="12">0.01,0.01,0.01,0.01,0.01,0.01,0.01,0.01</e>
			<e lid="13">0.01,0.01,0.01,0.01,0.01,0.01,0.01,0.01</e>
			<e lid="14">0.01,0.01,0.01,0.01,0.01,0.01,0.01,0.01</e>
			<e lid="15">0.01,0.01,0.01,0.01,0.01,0.01,0.01,0.01</e>
			<e lid="16">0.01,0.01,0.01,0.01,0.01,0.01,0.01,0.01</e>
			<e lid="17">0.01,0.01,0.01,0.01,0.01,0.01,0.01,0.01</e>
			<e lid="18">0.01,0.01,0.01,0.01,0.01,0.01,0.01,0.01</e>
			<e lid="19">0.01,0.01,0.01,0.01,0.01,0.01,0.01,0.01</e>
			<e lid="20">0.01,0.01,0.01,0.01,0.01,0.01,0.01,0.01</e>
<!-- ... 55 like lines cut -->
		</ElementData>
	</MeshData>
	<Boundary>
		<bc name="RigidInterface04" node_set="RigidNodeset 1" type="rigid">
			<rb>box2</rb>
			<clamp_shells>1</clamp_shells>
		</bc>
	</Boundary>
	<Rigid>
		<rigid_bc name="RigidFixed124" type="rigid_fixed">
			<rb>shell1</rb>
			<Rx_dof>1</Rx_dof>
			<Ry_dof>1</Ry_dof>
			<Rz_dof>1</Rz_dof>
			<Ru_dof>1</Ru_dof>
			<Rv_dof>1</Rv_dof>
			<Rw_dof>1</Rw_dof>
		</rigid_bc>
		<rigid_bc name="RigidDisplacement51" type="rigid_displacement">
			<rb>box2</rb>
			<dof>z</dof>
			<value lc="2">4</value>
			<relative>0</relative>
		</rigid_bc>
		<rigid_bc name="RigidFixed125" type="rigid_fixed">
			<rb>box2</rb>
			<Rx_dof>0</Rx_dof>
			<Ry_dof>1</Ry_dof>
			<Rz_dof>0</Rz_dof>
			<Ru_dof>1</Ru_dof>
			<Rv_dof>0</Rv_dof>
			<Rw_dof>1</Rw_dof>
		</rigid_bc>
	</Rigid>
	<Contact>
		<contact name="StickyInterface01" surface_pair="StickyInterface01" type="sticky">
			<laugon>PENALTY</laugon>
			<tolerance>0.2</tolerance>
			<penalty>1</penalty>
			<minaug>0</minaug>
			<maxaug>10</maxaug>
			<search_tolerance>0.0001</search_tolerance>
			<max_traction>0.01</max_traction>
			<snap_tol>0.01</snap_tol>
		</contact>
	</Contact>
	<LoadData>
		<load_controller id="1" name="LC1" type="loadcurve">
			<interpolate>STEP</interpolate>
			<extend>CONSTANT</extend>
			<points>
				<pt>0,0</pt>
				<pt>0.5,0.1</pt>
				<pt>1,0.1</pt>
			</points>
		</load_controller>
		<load_controller id="2" name="LC2" type="loadcurve">
			<interpolate>LINEAR</interpolate>
			<extend>CONSTANT</extend>
			<points>
				<pt>0,0</pt>
				<pt>1,1</pt>
			</points>
		</load_controller>
	</LoadData>
	<Output>
		<plotfile type="febio">
			<var type="contact gap"/>
			<var type="contact pressure"/>
			<var type="displacement"/>
			<var type="relative volume"/>
			<var type="shell director"/>
			<var type="shell strain"/>
			<var type="stress"/>
		</plotfile>
		<logfile>
			<element_data data="sx" elem_set="unnamed_set01"/>
		</logfile>
	</Output>
</febio_spec>
