<?xml version="1.0" encoding="ISO-8859-1"?>
<!--
Shell strip with continuous fiber distribution of 3D vonMises distribution where distribution is 
heavily along x direction.
Left edge with rigid constaint is fixed and right edge with rigid constraint is 
prescribed x displacement of 2 at t=1.
-->
<febio_spec version="4.0">
	<Module type="solid"/>
	<Control>
		<analysis>STATIC</analysis>
		<time_steps>100</time_steps>
		<step_size>0.01</step_size>
		<plot_zero_state>0</plot_zero_state>
		<plot_range>0,-1</plot_range>
		<plot_level>PLOT_MAJOR_ITRS</plot_level>
		<output_level>OUTPUT_MAJOR_ITRS</output_level>
		<plot_stride>1</plot_stride>
		<adaptor_re_solve>1</adaptor_re_solve>
		<time_stepper type="default">
			<max_retries>5</max_retries>
			<opt_iter>10</opt_iter>
			<dtmin>0.001</dtmin>
			<dtmax>0.1</dtmax>
			<aggressiveness>0</aggressiveness>
			<cutback>0.5</cutback>
			<dtforce>0</dtforce>
		</time_stepper>
		<solver type="solid">
			<symmetric_stiffness>symmetric</symmetric_stiffness>
			<equation_scheme>staggered</equation_scheme>
			<equation_order>default</equation_order>
			<optimize_bw>0</optimize_bw>
			<lstol>0.9</lstol>
			<lsmin>0.01</lsmin>
			<lsiter>5</lsiter>
			<max_refs>15</max_refs>
			<check_zero_diagonal>0</check_zero_diagonal>
			<zero_diagonal_tol>0</zero_diagonal_tol>
			<force_partition>0</force_partition>
			<reform_each_time_step>1</reform_each_time_step>
			<reform_augment>0</reform_augment>
			<diverge_reform>1</diverge_reform>
			<min_residual>1e-20</min_residual>
			<max_residual>0</max_residual>
			<dtol>0.001</dtol>
			<etol>0.01</etol>
			<rtol>0</rtol>
			<rhoi>-2</rhoi>
			<alpha>1</alpha>
			<beta>0.25</beta>
			<gamma>0.5</gamma>
			<logSolve>0</logSolve>
			<arc_length>0</arc_length>
			<arc_length_scale>0</arc_length_scale>
			<qn_method type="BFGS">
				<max_ups>0</max_ups>
				<max_buffer_size>0</max_buffer_size>
				<cycle_buffer>1</cycle_buffer>
				<cmax>100000</cmax>
			</qn_method>
		</solver>
	</Control>
	<Globals>
		<Constants>
			<T>293</T>
			<R>0.008314</R>
			<Fc>0.0965</Fc>
		</Constants>
	</Globals>
	<Material>
		<material id="1" name="mat1" type="solid mixture">
			<density>1</density>
			<solid type="neo-Hookean">
				<density>1</density>
				<E>1</E>
				<v>0.3</v>
			</solid>
			<solid type="continuous fiber distribution">
				<density>1</density>
				<fibers type="fiber-exp-pow">
					<alpha>20</alpha>
					<beta>2</beta>
					<ksi>5</ksi>
					<mu>0</mu>
					<lam0>1</lam0>
				</fibers>
				<distribution type="von-Mises-3d">
					<b>3</b>
				</distribution>
				<scheme type="fibers-3d-gkt">
					<nph>11</nph>
					<nth>31</nth>
				</scheme>
				<mat_axis type="vector">
					<a>1,0,0</a>
					<d>0,1,0</d>
				</mat_axis>
			</solid>
		</material>
		<material id="2" name="mat2" type="rigid body">
			<density>1</density>
			<E>1</E>
			<v>0</v>
		</material>
		<material id="3" name="mat3" type="rigid body">
			<density>1</density>
			<E>1</E>
			<v>0</v>
		</material>
	</Material>
	<Mesh>
		<Nodes name="Object01">
			<node id="1">-5,-1.5,0</node>
			<node id="2">-5,-0.75,0</node>
			<node id="3">-5,0,0</node>
			<node id="4">-5,0.75,0</node>
			<node id="5">-5,1.5,0</node>
			<node id="6">-4,-1.5,0</node>
			<node id="7">-4,-0.75,0</node>
			<node id="8">-4,0,0</node>
			<node id="9">-4,0.75,0</node>
			<node id="10">-4,1.5,0</node>
			<node id="11">-3,-1.5,0</node>
			<node id="12">-3,-0.75,0</node>
			<node id="13">-3,0,0</node>
			<node id="14">-3,0.75,0</node>
			<node id="15">-3,1.5,0</node>
			<node id="16">-2,-1.5,0</node>
			<node id="17">-2,-0.75,0</node>
			<node id="18">-2,0,0</node>
			<node id="19">-2,0.75,0</node>
			<node id="20">-2,1.5,0</node>
<!-- ... 35 like lines cut -->
		</Nodes>
		<Elements type="quad4" name="Part1">
			<elem id="1">1,6,7,2</elem>
			<elem id="2">2,7,8,3</elem>
			<elem id="3">3,8,9,4</elem>
			<elem id="4">4,9,10,5</elem>
			<elem id="5">6,11,12,7</elem>
			<elem id="6">7,12,13,8</elem>
			<elem id="7">8,13,14,9</elem>
			<elem id="8">9,14,15,10</elem>
			<elem id="9">11,16,17,12</elem>
			<elem id="10">12,17,18,13</elem>
			<elem id="11">13,18,19,14</elem>
			<elem id="12">14,19,20,15</elem>
			<elem id="13">16,21,22,17</elem>
			<elem id="14">17,22,23,18</elem>
			<elem id="15">18,23,24,19</elem>
			<elem id="16">19,24,25,20</elem>
			<elem id="17">21,26,27,22</elem>
			<elem id="18">22,27,28,23</elem>
			<elem id="19">23,28,29,24</elem>
			<elem id="20">24,29,30,25</elem>
<!-- ... 20 like lines cut -->
		</Elements>
		<NodeSet name="RigidNodeset 1">
			1, 2, 3, 4, 5
		</NodeSet>
		<NodeSet name="RigidNodeset 2">
			51, 52, 53, 54, 55
		</NodeSet>
		<ElementSet name="unnamed_set01">
			1
		</ElementSet>
	</Mesh>
	<MeshDomains>
		<ShellDomain name="Part1" mat="mat1">
			<shell_thickness>0</shell_thickness>
		</ShellDomain>
	</MeshDomains>
	<MeshData>
		<ElementData type="shell thickness" elem_set="Part1">
			<e lid="1">0.01,0.01,0.01,0.01</e>
			<e lid="2">0.01,0.01,0.01,0.01</e>
			<e lid="3">0.01,0.01,0.01,0.01</e>
			<e lid="4">0.01,0.01,0.01,0.01</e>
			<e lid="5">0.01,0.01,0.01,0.01</e>
			<e lid="6">0.01,0.01,0.01,0.01</e>
			<e lid="7">0.01,0.01,0.01,0.01</e>
			<e lid="8">0.01,0.01,0.01,0.01</e>
			<e lid="9">0.01,0.01,0.01,0.01</e>
			<e lid="10">0.01,0.01,0.01,0.01</e>
			<e lid="11">0.01,0.01,0.01,0.01</e>
			<e lid="12">0.01,0.01,0.01,0.01</e>
			<e lid="13">0.01,0.01,0.01,0.01</e>
			<e lid="14">0.01,0.01,0.01,0.01</e>
			<e lid="15">0.01,0.01,0.01,0.01</e>
			<e lid="16">0.01,0.01,0.01,0.01</e>
			<e lid="17">0.01,0.01,0.01,0.01</e>
			<e lid="18">0.01,0.01,0.01,0.01</e>
			<e lid="19">0.01,0.01,0.01,0.01</e>
			<e lid="20">0.01,0.01,0.01,0.01</e>
<!-- ... 20 like lines cut -->
		</ElementData>
	</MeshData>
	<Boundary>
		<bc name="RigidInterface02" node_set="RigidNodeset 1" type="rigid">
			<rb>mat2</rb>
			<clamp_shells>1</clamp_shells>
		</bc>
		<bc name="RigidInterface03" node_set="RigidNodeset 2" type="rigid">
			<rb>mat3</rb>
			<clamp_shells>1</clamp_shells>
		</bc>
	</Boundary>
	<Rigid>
		<rigid_bc name="RigidFixed126" type="rigid_fixed">
			<rb>mat2</rb>
			<Rx_dof>1</Rx_dof>
			<Ry_dof>1</Ry_dof>
			<Rz_dof>1</Rz_dof>
			<Ru_dof>1</Ru_dof>
			<Rv_dof>1</Rv_dof>
			<Rw_dof>1</Rw_dof>
		</rigid_bc>
		<rigid_bc name="RigidDisplacement52" type="rigid_displacement">
			<rb>mat3</rb>
			<dof>x</dof>
			<value lc="1">1</value>
			<relative>0</relative>
		</rigid_bc>
		<rigid_bc name="RigidFixed127" type="rigid_fixed">
			<rb>mat3</rb>
			<Rx_dof>0</Rx_dof>
			<Ry_dof>1</Ry_dof>
			<Rz_dof>1</Rz_dof>
			<Ru_dof>1</Ru_dof>
			<Rv_dof>1</Rv_dof>
			<Rw_dof>1</Rw_dof>
		</rigid_bc>
	</Rigid>
	<LoadData>
		<load_controller id="1" name="LC1" type="loadcurve">
			<interpolate>SMOOTH</interpolate>
			<extend>CONSTANT</extend>
			<points>
				<pt>0,0</pt>
				<pt>1,2</pt>
			</points>
		</load_controller>
	</LoadData>
	<Output>
		<plotfile type="febio">
			<var type="displacement"/>
			<var type="shell director"/>
			<var type="Lagrange strain"/>
			<var type="stress"/>
		</plotfile>
		<logfile>
			<element_data data="sx" elem_set="unnamed_set01"/>
		</logfile>
	</Output>
</febio_spec>
