<?xml version="1.0" encoding="ISO-8859-1"?>
<!--
A cantilever beam composed of tetrahedral elements has a traction force of
1 unit in the zdirection applied to free end.
-->
<febio_spec version="4.0">
	<Module type="solid"/>
	<Control>
		<analysis>STATIC</analysis>
		<time_steps>10</time_steps>
		<step_size>0.1</step_size>
		<plot_zero_state>0</plot_zero_state>
		<plot_range>0,-1</plot_range>
		<plot_level>PLOT_MAJOR_ITRS</plot_level>
		<output_level>OUTPUT_MAJOR_ITRS</output_level>
		<plot_stride>1</plot_stride>
		<adaptor_re_solve>1</adaptor_re_solve>
		<solver type="solid">
			<symmetric_stiffness>symmetric</symmetric_stiffness>
			<equation_scheme>staggered</equation_scheme>
			<equation_order>default</equation_order>
			<optimize_bw>0</optimize_bw>
			<lstol>0</lstol>
			<lsmin>0.01</lsmin>
			<lsiter>5</lsiter>
			<max_refs>50</max_refs>
			<check_zero_diagonal>0</check_zero_diagonal>
			<zero_diagonal_tol>0</zero_diagonal_tol>
			<force_partition>0</force_partition>
			<reform_each_time_step>1</reform_each_time_step>
			<reform_augment>0</reform_augment>
			<diverge_reform>1</diverge_reform>
			<min_residual>1e-20</min_residual>
			<max_residual>0</max_residual>
			<dtol>0.001</dtol>
			<etol>0.01</etol>
			<rtol>0</rtol>
			<rhoi>-2</rhoi>
			<alpha>1</alpha>
			<beta>0.25</beta>
			<gamma>0.5</gamma>
			<logSolve>0</logSolve>
			<arc_length>0</arc_length>
			<arc_length_scale>0</arc_length_scale>
			<qn_method type="BFGS">
				<max_ups>10</max_ups>
				<max_buffer_size>0</max_buffer_size>
				<cycle_buffer>1</cycle_buffer>
				<cmax>100000</cmax>
			</qn_method>
		</solver>
	</Control>
	<Globals>
		<Constants>
			<T>0</T>
			<R>0</R>
			<Fc>0</Fc>
		</Constants>
	</Globals>
	<Material>
		<material id="1" name="Material 1" type="neo-Hookean">
			<density>1</density>
			<E>500</E>
			<v>0.49</v>
		</material>
	</Material>
	<Mesh>
		<Nodes name="Object01">
			<node id="1">-5,-1,0</node>
			<node id="2">-5,-1,1</node>
			<node id="3">-5,1,0</node>
			<node id="4">-5,1,1</node>
			<node id="5">5,-1,0</node>
			<node id="6">5,-1,1</node>
			<node id="7">5,1,0</node>
			<node id="8">5,1,1</node>
			<node id="9">0,1,1</node>
			<node id="10">0,-1,1</node>
			<node id="11">0,-1,0</node>
			<node id="12">0,1,0</node>
			<node id="13">2.5,-1,1</node>
			<node id="14">2.5,-1,0</node>
			<node id="15">2.5,1,0</node>
			<node id="16">2.5,1,1</node>
			<node id="17">-2.5,-1,1</node>
			<node id="18">-2.5,-1,0</node>
			<node id="19">-2.5,1,0</node>
			<node id="20">-2.5,1,1</node>
<!-- ... 991 like lines cut -->
		</Nodes>
		<Elements type="tet4" name="Part4">
			<elem id="1">237,580,398,581</elem>
			<elem id="2">755,756,566,902</elem>
			<elem id="3">326,325,68,969</elem>
			<elem id="4">622,938,48,1009</elem>
			<elem id="5">139,597,410,898</elem>
			<elem id="6">159,635,634,828</elem>
			<elem id="7">671,855,662,966</elem>
			<elem id="8">369,751,549,754</elem>
			<elem id="9">80,387,386,569</elem>
			<elem id="10">119,511,339,694</elem>
			<elem id="11">495,687,329,888</elem>
			<elem id="12">282,444,443,842</elem>
			<elem id="13">452,639,638,848</elem>
			<elem id="14">525,527,521,858</elem>
			<elem id="15">644,955,451,999</elem>
			<elem id="16">534,692,356,732</elem>
			<elem id="17">190,321,67,322</elem>
			<elem id="18">642,669,453,861</elem>
			<elem id="19">581,742,738,896</elem>
			<elem id="20">362,543,364,790</elem>
<!-- ... 3953 like lines cut -->
		</Elements>
		<NodeSet name="FixedDisplacement01">
			1, 2, 3, 4, 51, 52, 86, 87,
			88, 145, 146, 147, 148, 260, 261, 262,
			263, 266, 267, 269, 401, 424, 429, 430,
			432, 584, 587, 588, 611, 618, 779, 931
		</NodeSet>
		<NodeSet name="FixedDisplacement02">
			1, 2, 3, 4, 51, 52, 86, 87,
			88, 145, 146, 147, 148, 260, 261, 262,
			263, 266, 267, 269, 401, 424, 429, 430,
			432, 584, 587, 588, 611, 618, 779, 931
		</NodeSet>
		<NodeSet name="FixedDisplacement03">
			1, 2, 3, 4, 51, 52, 86, 87,
			88, 145, 146, 147, 148, 260, 261, 262,
			263, 266, 267, 269, 401, 424, 429, 430,
			432, 584, 587, 588, 611, 618, 779, 931
		</NodeSet>
		<Surface name="surface01">
			<tri3 id="1">190,322,67</tri3>
			<tri3 id="2">108,193,107</tri3>
			<tri3 id="3">6,108,107</tri3>
			<tri3 id="4">67,193,108</tri3>
			<tri3 id="5">327,680,865</tri3>
			<tri3 id="6">118,508,706</tri3>
			<tri3 id="7">515,341,865</tri3>
			<tri3 id="8">191,190,5</tri3>
			<tri3 id="9">109,66,193</tri3>
			<tri3 id="10">337,8,338</tri3>
			<tri3 id="11">199,515,700</tri3>
			<tri3 id="12">118,337,508</tri3>
			<tri3 id="13">190,191,322</tri3>
			<tri3 id="14">109,193,322</tri3>
			<tri3 id="15">66,107,193</tri3>
			<tri3 id="16">515,194,700</tri3>
			<tri3 id="17">42,505,700</tri3>
			<tri3 id="18">700,1007,199</tri3>
			<tri3 id="19">109,493,680</tri3>
			<tri3 id="20">193,67,322</tri3>
<!-- ... 28 like lines cut -->
		</Surface>
		<ElementSet name="unnamed_set01">
			657
		</ElementSet>
	</Mesh>
	<MeshDomains>
		<SolidDomain name="Part4" mat="Material 1" type="ut4-solid">
			<alpha>0.05</alpha>
			<iso_stab>1</iso_stab>
		</SolidDomain>
	</MeshDomains>
	<Boundary>
		<bc name="FixedDisplacement01" node_set="FixedDisplacement01" type="zero displacement">
			<x_dof>0</x_dof>
			<y_dof>0</y_dof>
			<z_dof>1</z_dof>
		</bc>
		<bc name="FixedDisplacement02" node_set="FixedDisplacement02" type="zero displacement">
			<x_dof>0</x_dof>
			<y_dof>1</y_dof>
			<z_dof>0</z_dof>
		</bc>
		<bc name="FixedDisplacement03" node_set="FixedDisplacement03" type="zero displacement">
			<x_dof>1</x_dof>
			<y_dof>0</y_dof>
			<z_dof>0</z_dof>
		</bc>
	</Boundary>
	<Loads>
		<surface_load name="TractionLoad1" surface="surface01" type="traction">
			<scale lc="1">-1</scale>
			<traction>0,0,1</traction>
			<shell_bottom>0</shell_bottom>
			<linear>0</linear>
		</surface_load>
	</Loads>
	<LoadData>
		<load_controller id="1" name="LC1" type="loadcurve">
			<interpolate>SMOOTH</interpolate>
			<extend>CONSTANT</extend>
			<points>
				<pt>0,0</pt>
				<pt>1,1</pt>
			</points>
		</load_controller>
	</LoadData>
	<Output>
		<plotfile type="febio">
			<var type="displacement"/>
			<var type="stress"/>
		</plotfile>
	</Output>
</febio_spec>
