<?xml version="1.0" encoding="ISO-8859-1"?>
<!--
Cook's membrane problem for unstructured nodally integrated tet mesh.  The left
face is constrained and a traction force of 50 kPa is applied in the ydirection
to the right face.
-->
<febio_spec version="4.0">
	<Module type="solid"/>
	<Control>
		<analysis>STATIC</analysis>
		<time_steps>10</time_steps>
		<step_size>0.1</step_size>
		<plot_zero_state>0</plot_zero_state>
		<plot_range>0,-1</plot_range>
		<plot_level>PLOT_MAJOR_ITRS</plot_level>
		<output_level>OUTPUT_MAJOR_ITRS</output_level>
		<plot_stride>1</plot_stride>
		<adaptor_re_solve>1</adaptor_re_solve>
		<time_stepper type="default">
			<max_retries>5</max_retries>
			<opt_iter>10</opt_iter>
			<dtmin>0.01</dtmin>
			<dtmax>0.1</dtmax>
			<aggressiveness>0</aggressiveness>
			<cutback>0.5</cutback>
			<dtforce>0</dtforce>
		</time_stepper>
		<solver type="solid">
			<symmetric_stiffness>symmetric</symmetric_stiffness>
			<equation_scheme>staggered</equation_scheme>
			<equation_order>default</equation_order>
			<optimize_bw>0</optimize_bw>
			<lstol>0.9</lstol>
			<lsmin>0.01</lsmin>
			<lsiter>5</lsiter>
			<max_refs>15</max_refs>
			<check_zero_diagonal>0</check_zero_diagonal>
			<zero_diagonal_tol>0</zero_diagonal_tol>
			<force_partition>0</force_partition>
			<reform_each_time_step>1</reform_each_time_step>
			<reform_augment>0</reform_augment>
			<diverge_reform>1</diverge_reform>
			<min_residual>1e-20</min_residual>
			<max_residual>0</max_residual>
			<dtol>0.001</dtol>
			<etol>0.01</etol>
			<rtol>0</rtol>
			<rhoi>-2</rhoi>
			<alpha>1</alpha>
			<beta>0.25</beta>
			<gamma>0.5</gamma>
			<logSolve>0</logSolve>
			<arc_length>0</arc_length>
			<arc_length_scale>0</arc_length_scale>
			<qn_method type="BFGS">
				<max_ups>10</max_ups>
				<max_buffer_size>0</max_buffer_size>
				<cycle_buffer>1</cycle_buffer>
				<cmax>100000</cmax>
			</qn_method>
		</solver>
	</Control>
	<Globals>
		<Constants>
			<T>0</T>
			<R>0</R>
			<Fc>0</Fc>
		</Constants>
	</Globals>
	<Material>
		<material id="1" name="Material2" type="Mooney-Rivlin">
			<density>5e-07</density>
			<k>40094</k>
			<pressure_model>default</pressure_model>
			<c1>40.12</c1>
			<c2>0</c2>
		</material>
	</Material>
	<Mesh>
		<Nodes name="Object01">
			<node id="1">0,0,0</node>
			<node id="2">48,44,0</node>
			<node id="3">48,60,0</node>
			<node id="4">0,44,0</node>
			<node id="5">0,0,1</node>
			<node id="6">48,44,1</node>
			<node id="7">48,60,1</node>
			<node id="8">0,44,1</node>
			<node id="9">24,22,0</node>
			<node id="10">24,22,1</node>
			<node id="11">24,52,0</node>
			<node id="12">24,52,1</node>
			<node id="13">36,56,0</node>
			<node id="14">36,56,1</node>
			<node id="15">0,22,1</node>
			<node id="16">12,11,1</node>
			<node id="17">12,11,0</node>
			<node id="18">0,22,0</node>
			<node id="19">36,33,1</node>
			<node id="20">36,33,0</node>
<!-- ... 2293 like lines cut -->
		</Nodes>
		<Elements type="tet4" name="Part6">
			<elem id="1">396,1598,460,1599</elem>
			<elem id="2">400,1577,399,1578</elem>
			<elem id="3">848,1783,979,2196</elem>
			<elem id="4">383,1553,278,1554</elem>
			<elem id="5">1191,1328,1264,1988</elem>
			<elem id="6">107,190,155,1505</elem>
			<elem id="7">376,1507,99,1508</elem>
			<elem id="8">192,379,275,380</elem>
			<elem id="9">406,502,140,1634</elem>
			<elem id="10">385,1570,69,1651</elem>
			<elem id="11">406,1579,502,1581</elem>
			<elem id="12">168,171,116,238</elem>
			<elem id="13">734,1718,633,1719</elem>
			<elem id="14">1290,2000,1999,2002</elem>
			<elem id="15">733,1670,646,1671</elem>
			<elem id="16">409,1546,219,1548</elem>
			<elem id="17">61,1530,161,1531</elem>
			<elem id="18">26,337,236,1513</elem>
			<elem id="19">93,188,153,1497</elem>
			<elem id="20">210,229,105,260</elem>
<!-- ... 6935 like lines cut -->
		</Elements>
		<NodeSet name="FixedDisplacement01">
			1, 4, 5, 8, 15, 18, 25, 27,
			36, 37, 42, 43, 48, 49, 66, 67,
			71, 72, 109, 110, 119, 120, 156, 157,
			159, 160, 163, 164, 186, 187, 242, 243,
			262, 263, 268, 269, 342, 343, 346, 347,
			368, 369, 455, 456, 565, 566, 589, 590,
			692, 693, 1024, 1025, 1041, 1042, 1312, 1313,
			1517, 1518, 1604, 1605, 1749, 1750, 1849, 1851,
			1902, 1903
		</NodeSet>
		<NodeSet name="FixedDisplacement02">
			1, 4, 5, 8, 15, 18, 25, 27,
			36, 37, 42, 43, 48, 49, 66, 67,
			71, 72, 109, 110, 119, 120, 156, 157,
			159, 160, 163, 164, 186, 187, 242, 243,
			262, 263, 268, 269, 342, 343, 346, 347,
			368, 369, 455, 456, 565, 566, 589, 590,
			692, 693, 1024, 1025, 1041, 1042, 1312, 1313,
			1517, 1518, 1604, 1605, 1749, 1750, 1849, 1851,
			1902, 1903
		</NodeSet>
		<NodeSet name="FixedDisplacement03">
			1, 2, 3, 4, 5, 6, 7, 8,
			9, 10, 11, 12, 13, 14, 15, 16,
			17, 18, 19, 20, 21, 22, 23, 24,
			25, 26, 27, 28, 29, 30, 31, 32,
			33, 34, 35, 36, 37, 38, 39, 40,
			41, 42, 43, 44, 45, 46, 47, 48,
			49, 50, 51, 52, 53, 54, 55, 56,
			57, 58, 59, 60, 61, 62, 63, 64,
			65, 66, 67, 68, 69, 70, 71, 72,
			73, 74, 75, 76, 77, 78, 79, 80,
			81, 82, 83, 84, 85, 86, 87, 88,
			89, 90, 91, 92, 93, 94, 95, 96,
			97, 98, 99, 100, 101, 102, 103, 104,
			105, 106, 107, 108, 109, 110, 111, 112,
			113, 114, 115, 116, 117, 118, 119, 120,
			121, 122, 123, 124, 125, 126, 127, 128,
			129, 130, 131, 132, 133, 134, 135, 136,
			137, 138, 139, 140, 141, 142, 143, 144,
			145, 146, 147, 148, 149, 150, 151, 152,
			153, 154, 155, 156, 157, 158, 159, 160,
<!-- ... 270 like lines cut -->
		</NodeSet>
		<Surface name="surface01">
			<tri3 id="1">23,2105,2106</tri3>
			<tri3 id="2">2119,1483,1484</tri3>
			<tri3 id="3">2101,1389,1388</tri3>
			<tri3 id="4">1432,1088,1433</tri3>
			<tri3 id="5">1297,1296,1433</tri3>
			<tri3 id="6">1453,1088,1452</tri3>
			<tri3 id="7">1340,1339,2119</tri3>
			<tri3 id="8">1389,1453,1388</tri3>
			<tri3 id="9">1297,2066,1296</tri3>
			<tri3 id="10">1453,1089,1088</tri3>
			<tri3 id="11">1433,1296,1432</tri3>
			<tri3 id="12">1433,1088,1089</tri3>
			<tri3 id="13">2,2066,6</tri3>
			<tri3 id="14">1452,1388,1453</tri3>
			<tri3 id="15">1388,2102,2101</tri3>
			<tri3 id="16">2102,23,2101</tri3>
			<tri3 id="17">24,2105,23</tri3>
			<tri3 id="18">1483,2119,2120</tri3>
			<tri3 id="19">2105,1468,2106</tri3>
			<tri3 id="20">2118,3,2117</tri3>
<!-- ... 12 like lines cut -->
		</Surface>
		<ElementSet name="unnamed_set01">
			3726
		</ElementSet>
	</Mesh>
	<MeshDomains>
		<SolidDomain name="Part6" mat="Material2" type="ut4-solid">
			<alpha>0.2</alpha>
			<iso_stab>1</iso_stab>
		</SolidDomain>
	</MeshDomains>
	<Boundary>
		<bc name="FixedDisplacement01" node_set="FixedDisplacement01" type="zero displacement">
			<x_dof>0</x_dof>
			<y_dof>1</y_dof>
			<z_dof>0</z_dof>
		</bc>
		<bc name="FixedDisplacement02" node_set="FixedDisplacement02" type="zero displacement">
			<x_dof>1</x_dof>
			<y_dof>0</y_dof>
			<z_dof>0</z_dof>
		</bc>
		<bc name="FixedDisplacement03" node_set="FixedDisplacement03" type="zero displacement">
			<x_dof>0</x_dof>
			<y_dof>0</y_dof>
			<z_dof>1</z_dof>
		</bc>
	</Boundary>
	<Loads>
		<surface_load name="TractionLoad1" surface="surface01" type="traction">
			<scale lc="1">1</scale>
			<traction>0,1,0</traction>
			<shell_bottom>0</shell_bottom>
			<linear>0</linear>
		</surface_load>
	</Loads>
	<LoadData>
		<load_controller id="1" name="LC1" type="loadcurve">
			<interpolate>SMOOTH</interpolate>
			<extend>CONSTANT</extend>
			<points>
				<pt>0,0</pt>
				<pt>1,50</pt>
			</points>
		</load_controller>
	</LoadData>
	<Output>
		<plotfile type="febio">
			<var type="displacement"/>
			<var type="stress"/>
		</plotfile>
		<logfile>
			<element_data data="Ey" elem_set="unnamed_set01"/>
		</logfile>
	</Output>
</febio_spec>
