<?xml version="1.0" encoding="ISO-8859-1"?>
<!--
Cantilever beam problem with unstructured nodally integrated tets.  A shear
traction of 2000 units is applied to the free end.
-->
<febio_spec version="4.0">
	<Module type="solid"/>
	<Control>
		<analysis>STATIC</analysis>
		<time_steps>50</time_steps>
		<step_size>0.02</step_size>
		<plot_zero_state>0</plot_zero_state>
		<plot_range>0,-1</plot_range>
		<plot_level>PLOT_MAJOR_ITRS</plot_level>
		<output_level>OUTPUT_MAJOR_ITRS</output_level>
		<plot_stride>1</plot_stride>
		<adaptor_re_solve>1</adaptor_re_solve>
		<time_stepper type="default">
			<max_retries>5</max_retries>
			<opt_iter>10</opt_iter>
			<dtmin>0.01</dtmin>
			<dtmax>0.1</dtmax>
			<aggressiveness>0</aggressiveness>
			<cutback>0.5</cutback>
			<dtforce>0</dtforce>
		</time_stepper>
		<solver type="solid">
			<symmetric_stiffness>symmetric</symmetric_stiffness>
			<equation_scheme>staggered</equation_scheme>
			<equation_order>default</equation_order>
			<optimize_bw>0</optimize_bw>
			<lstol>0.9</lstol>
			<lsmin>0.01</lsmin>
			<lsiter>5</lsiter>
			<max_refs>50</max_refs>
			<check_zero_diagonal>0</check_zero_diagonal>
			<zero_diagonal_tol>0</zero_diagonal_tol>
			<force_partition>0</force_partition>
			<reform_each_time_step>1</reform_each_time_step>
			<reform_augment>0</reform_augment>
			<diverge_reform>1</diverge_reform>
			<min_residual>1e-20</min_residual>
			<max_residual>0</max_residual>
			<dtol>0.001</dtol>
			<etol>0.01</etol>
			<rtol>0</rtol>
			<rhoi>-2</rhoi>
			<alpha>1</alpha>
			<beta>0.25</beta>
			<gamma>0.5</gamma>
			<logSolve>0</logSolve>
			<arc_length>0</arc_length>
			<arc_length_scale>0</arc_length_scale>
			<qn_method type="BFGS">
				<max_ups>0</max_ups>
				<max_buffer_size>0</max_buffer_size>
				<cycle_buffer>1</cycle_buffer>
				<cmax>100000</cmax>
			</qn_method>
		</solver>
	</Control>
	<Globals>
		<Constants>
			<T>0</T>
			<R>0</R>
			<Fc>0</Fc>
		</Constants>
	</Globals>
	<Material>
		<material id="1" name="Material 1" type="Mooney-Rivlin">
			<density>1</density>
			<k>1.6667e+08</k>
			<pressure_model>default</pressure_model>
			<c1>167000</c1>
			<c2>0</c2>
		</material>
	</Material>
	<Mesh>
		<Nodes name="Object01">
			<node id="1">-8,-1,0</node>
			<node id="2">-8,-1,2</node>
			<node id="3">-8,1,0</node>
			<node id="4">-8,1,2</node>
			<node id="5">-6,-1,0</node>
			<node id="6">-6,-1,2</node>
			<node id="7">-6,1,0</node>
			<node id="8">-6,1,2</node>
			<node id="9">-4,-1,0</node>
			<node id="10">-4,-1,2</node>
			<node id="11">-4,1,0</node>
			<node id="12">-4,1,2</node>
			<node id="13">-2,-1,0</node>
			<node id="14">-2,-1,2</node>
			<node id="15">-2,1,0</node>
			<node id="16">-2,1,2</node>
			<node id="17">0,-1,0</node>
			<node id="18">0,-1,2</node>
			<node id="19">0,1,0</node>
			<node id="20">0,1,2</node>
<!-- ... 174 like lines cut -->
		</Nodes>
		<Elements type="tet4" name="Part7">
			<elem id="1">78,117,32,137</elem>
			<elem id="2">90,169,53,172</elem>
			<elem id="3">35,96,64,118</elem>
			<elem id="4">72,126,125,189</elem>
			<elem id="5">90,169,88,194</elem>
			<elem id="6">1,116,47,165</elem>
			<elem id="7">23,75,39,76</elem>
			<elem id="8">58,133,20,134</elem>
			<elem id="9">79,119,29,179</elem>
			<elem id="10">77,127,44,145</elem>
			<elem id="11">27,108,39,109</elem>
			<elem id="12">184,190,185,194</elem>
			<elem id="13">106,132,107,154</elem>
			<elem id="14">82,115,3,116</elem>
			<elem id="15">30,119,79,179</elem>
			<elem id="16">20,142,87,190</elem>
			<elem id="17">127,147,145,149</elem>
			<elem id="18">127,128,26,154</elem>
			<elem id="19">37,73,22,74</elem>
			<elem id="20">31,78,43,80</elem>
<!-- ... 492 like lines cut -->
		</Elements>
		<NodeSet name="FixedDisplacement01">
			1, 2, 3, 4, 47, 48, 81, 82,
			116, 187, 188
		</NodeSet>
		<NodeSet name="FixedDisplacement02">
			1, 2, 3, 4, 47, 48, 81, 82,
			116, 187, 188
		</NodeSet>
		<NodeSet name="FixedDisplacement03">
			1, 2, 3, 4, 47, 48, 81, 82,
			116, 187, 188
		</NodeSet>
		<Surface name="TractionLoad1">
			<tri3 id="1">35,64,96</tri3>
			<tri3 id="2">93,35,96</tri3>
			<tri3 id="3">36,91,96</tri3>
			<tri3 id="4">91,34,96</tri3>
			<tri3 id="5">64,36,96</tri3>
			<tri3 id="6">33,93,96</tri3>
			<tri3 id="7">34,61,96</tri3>
			<tri3 id="8">61,33,96</tri3>
		</Surface>
		<ElementSet name="unnamed_set01">
			213
		</ElementSet>
	</Mesh>
	<MeshDomains>
		<SolidDomain name="Part7" mat="Material 1" type="ut4-solid">
			<alpha>0.02</alpha>
			<iso_stab>1</iso_stab>
		</SolidDomain>
	</MeshDomains>
	<Boundary>
		<bc name="FixedDisplacement01" node_set="FixedDisplacement01" type="zero displacement">
			<x_dof>0</x_dof>
			<y_dof>0</y_dof>
			<z_dof>1</z_dof>
		</bc>
		<bc name="FixedDisplacement02" node_set="FixedDisplacement02" type="zero displacement">
			<x_dof>0</x_dof>
			<y_dof>1</y_dof>
			<z_dof>0</z_dof>
		</bc>
		<bc name="FixedDisplacement03" node_set="FixedDisplacement03" type="zero displacement">
			<x_dof>1</x_dof>
			<y_dof>0</y_dof>
			<z_dof>0</z_dof>
		</bc>
	</Boundary>
	<Loads>
		<surface_load name="TractionLoad1" surface="TractionLoad1" type="traction">
			<scale lc="1">-2000</scale>
			<traction>0,0,1</traction>
			<shell_bottom>0</shell_bottom>
			<linear>0</linear>
		</surface_load>
	</Loads>
	<LoadData>
		<load_controller id="1" name="LC1" type="loadcurve">
			<interpolate>SMOOTH</interpolate>
			<extend>CONSTANT</extend>
			<points>
				<pt>0,0</pt>
				<pt>1,1</pt>
			</points>
		</load_controller>
	</LoadData>
	<Output>
		<plotfile type="febio">
			<var type="displacement"/>
			<var type="stress"/>
		</plotfile>
	</Output>
</febio_spec>
