<?xml version="1.0" encoding="ISO-8859-1"?>
<!--
1/4 symmetrical representation of the compression of a billet by a rigid wall
with a zdisplacement of 0.4 units at time t=1.
-->
<febio_spec version="4.0">
	<Module type="solid"/>
	<Control>
		<analysis>STATIC</analysis>
		<time_steps>10</time_steps>
		<step_size>0.1</step_size>
		<plot_zero_state>0</plot_zero_state>
		<plot_range>0,-1</plot_range>
		<plot_level>PLOT_MAJOR_ITRS</plot_level>
		<output_level>OUTPUT_MAJOR_ITRS</output_level>
		<plot_stride>1</plot_stride>
		<adaptor_re_solve>1</adaptor_re_solve>
		<time_stepper type="default">
			<max_retries>5</max_retries>
			<opt_iter>10</opt_iter>
			<dtmin>0.01</dtmin>
			<dtmax>0.1</dtmax>
			<aggressiveness>0</aggressiveness>
			<cutback>0.5</cutback>
			<dtforce>0</dtforce>
		</time_stepper>
		<solver type="solid">
			<symmetric_stiffness>symmetric</symmetric_stiffness>
			<equation_scheme>staggered</equation_scheme>
			<equation_order>default</equation_order>
			<optimize_bw>0</optimize_bw>
			<lstol>0.9</lstol>
			<lsmin>0.01</lsmin>
			<lsiter>5</lsiter>
			<max_refs>15</max_refs>
			<check_zero_diagonal>0</check_zero_diagonal>
			<zero_diagonal_tol>0</zero_diagonal_tol>
			<force_partition>0</force_partition>
			<reform_each_time_step>1</reform_each_time_step>
			<reform_augment>0</reform_augment>
			<diverge_reform>1</diverge_reform>
			<min_residual>1e-20</min_residual>
			<max_residual>0</max_residual>
			<dtol>0.001</dtol>
			<etol>0.01</etol>
			<rtol>0</rtol>
			<rhoi>-2</rhoi>
			<alpha>1</alpha>
			<beta>0.25</beta>
			<gamma>0.5</gamma>
			<logSolve>0</logSolve>
			<arc_length>0</arc_length>
			<arc_length_scale>0</arc_length_scale>
			<qn_method type="BFGS">
				<max_ups>10</max_ups>
				<max_buffer_size>0</max_buffer_size>
				<cycle_buffer>1</cycle_buffer>
				<cmax>100000</cmax>
			</qn_method>
		</solver>
	</Control>
	<Globals>
		<Constants>
			<T>293</T>
			<R>8.314e-06</R>
			<Fc>9.65e-05</Fc>
		</Constants>
	</Globals>
	<Material>
		<material id="1" name="Material 2" type="neo-Hookean">
			<density>1</density>
			<E>1</E>
			<v>0.49</v>
		</material>
	</Material>
	<Mesh>
		<Nodes name="Object01">
			<node id="1">0,-0.5,-0.05</node>
			<node id="2">0.05,-0.5,-0.05</node>
			<node id="3">0.1,-0.5,-0.05</node>
			<node id="4">0.15,-0.5,-0.05</node>
			<node id="5">0.2,-0.5,-0.05</node>
			<node id="6">0.25,-0.5,-0.05</node>
			<node id="7">0.3,-0.5,-0.05</node>
			<node id="8">0.35,-0.5,-0.05</node>
			<node id="9">0.4,-0.5,-0.05</node>
			<node id="10">0.45,-0.5,-0.05</node>
			<node id="11">0.5,-0.5,-0.05</node>
			<node id="12">0,-0.45,-0.05</node>
			<node id="13">0.05,-0.45,-0.05</node>
			<node id="14">0.1,-0.45,-0.05</node>
			<node id="15">0.15,-0.45,-0.05</node>
			<node id="16">0.2,-0.45,-0.05</node>
			<node id="17">0.25,-0.45,-0.05</node>
			<node id="18">0.3,-0.45,-0.05</node>
			<node id="19">0.35,-0.45,-0.05</node>
			<node id="20">0.4,-0.45,-0.05</node>
<!-- ... 1062 like lines cut -->
		</Nodes>
		<Elements type="hex8" name="Part16">
			<elem id="1">1,2,13,12,122,123,134,133</elem>
			<elem id="2">2,3,14,13,123,124,135,134</elem>
			<elem id="3">3,4,15,14,124,125,136,135</elem>
			<elem id="4">4,5,16,15,125,126,137,136</elem>
			<elem id="5">5,6,17,16,126,127,138,137</elem>
			<elem id="6">6,7,18,17,127,128,139,138</elem>
			<elem id="7">7,8,19,18,128,129,140,139</elem>
			<elem id="8">8,9,20,19,129,130,141,140</elem>
			<elem id="9">9,10,21,20,130,131,142,141</elem>
			<elem id="10">10,11,22,21,131,132,143,142</elem>
			<elem id="11">12,13,24,23,133,134,145,144</elem>
			<elem id="12">13,14,25,24,134,135,146,145</elem>
			<elem id="13">14,15,26,25,135,136,147,146</elem>
			<elem id="14">15,16,27,26,136,137,148,147</elem>
			<elem id="15">16,17,28,27,137,138,149,148</elem>
			<elem id="16">17,18,29,28,138,139,150,149</elem>
			<elem id="17">18,19,30,29,139,140,151,150</elem>
			<elem id="18">19,20,31,30,140,141,152,151</elem>
			<elem id="19">20,21,32,31,141,142,153,152</elem>
			<elem id="20">21,22,33,32,142,143,154,153</elem>
<!-- ... 480 like lines cut -->
		</Elements>
		<NodeSet name="FixedDisplacement01">
			1, 2, 3, 4, 5, 6, 7, 8,
			9, 10, 11, 12, 13, 14, 15, 16,
			17, 18, 19, 20, 21, 22, 23, 24,
			25, 26, 27, 28, 29, 30, 31, 32,
			33, 34, 35, 36, 37, 38, 39, 40,
			41, 42, 43, 44, 45, 46, 47, 48,
			49, 50, 51, 52, 53, 54, 55, 56,
			57, 58, 59, 60, 61, 62, 63, 64,
			65, 66, 67, 68, 69, 70, 71, 72,
			73, 74, 75, 76, 77, 78, 79, 80,
			81, 82, 83, 84, 85, 86, 87, 88,
			89, 90, 91, 92, 93, 94, 95, 96,
			97, 98, 99, 100, 101, 102, 103, 104,
			105, 106, 107, 108, 109, 110, 111, 112,
			113, 114, 115, 116, 117, 118, 119, 120,
			121, 122, 123, 124, 125, 126, 127, 128,
			129, 130, 131, 132, 133, 134, 135, 136,
			137, 138, 139, 140, 141, 142, 143, 144,
			145, 146, 147, 148, 149, 150, 151, 152,
			153, 154, 155, 156, 157, 158, 159, 160,
<!-- ... 116 like lines cut -->
		</NodeSet>
		<NodeSet name="FixedDisplacement02">
			1, 12, 23, 34, 45, 56, 67, 78,
			89, 100, 111, 122, 133, 144, 155, 166,
			177, 188, 199, 210, 221, 232, 243, 264,
			285, 306, 327, 348, 369, 390, 411, 432,
			453, 474, 495, 516, 537, 558, 579, 600,
			621, 642, 663, 684, 705, 726, 747, 768,
			789, 810, 831, 852, 873, 894, 915, 936,
			957, 978, 999, 1020, 1041, 1042, 1043, 1044,
			1045, 1046, 1047, 1048, 1049, 1050, 1051, 1062,
			1063, 1064, 1065, 1066, 1067, 1068, 1069, 1070,
			1071, 1072
		</NodeSet>
		<NodeSet name="FixedDisplacement03">
			111, 112, 113, 114, 115, 116, 117, 118,
			119, 120, 121, 232, 233, 234, 235, 236,
			237, 238, 239, 240, 241, 242, 263, 284,
			305, 326, 347, 368, 389, 410, 431, 452,
			473, 494, 515, 536, 557, 578, 599, 620,
			641, 662, 683, 704, 725, 746, 767, 788,
			809, 830, 851, 872, 893, 914, 935, 956,
			977, 998, 1019, 1040, 1061, 1082
		</NodeSet>
		<Surface name="RigidWall01">
			<quad4 id="1">1041,1042,1063,1062</quad4>
			<quad4 id="2">1042,1043,1064,1063</quad4>
			<quad4 id="3">1043,1044,1065,1064</quad4>
			<quad4 id="4">1044,1045,1066,1065</quad4>
			<quad4 id="5">1045,1046,1067,1066</quad4>
			<quad4 id="6">1046,1047,1068,1067</quad4>
			<quad4 id="7">1047,1048,1069,1068</quad4>
			<quad4 id="8">1048,1049,1070,1069</quad4>
			<quad4 id="9">1049,1050,1071,1070</quad4>
			<quad4 id="10">1051,1052,1073,1072</quad4>
			<quad4 id="11">1050,1051,1072,1071</quad4>
			<quad4 id="12">1052,1053,1074,1073</quad4>
			<quad4 id="13">1053,1054,1075,1074</quad4>
			<quad4 id="14">1054,1055,1076,1075</quad4>
			<quad4 id="15">1055,1056,1077,1076</quad4>
			<quad4 id="16">1056,1057,1078,1077</quad4>
			<quad4 id="17">1057,1058,1079,1078</quad4>
			<quad4 id="18">1058,1059,1080,1079</quad4>
			<quad4 id="19">1059,1060,1081,1080</quad4>
			<quad4 id="20">1060,1061,1082,1081</quad4>
		</Surface>
		<ElementSet name="unnamed_set01">
			480
		</ElementSet>
	</Mesh>
	<MeshDomains>
		<SolidDomain name="Part16" mat="Material 2"/>
	</MeshDomains>
	<Boundary>
		<bc name="FixedDisplacement01" node_set="FixedDisplacement01" type="zero displacement">
			<x_dof>0</x_dof>
			<y_dof>0</y_dof>
			<z_dof>1</z_dof>
		</bc>
		<bc name="FixedDisplacement02" node_set="FixedDisplacement02" type="zero displacement">
			<x_dof>1</x_dof>
			<y_dof>0</y_dof>
			<z_dof>0</z_dof>
		</bc>
		<bc name="FixedDisplacement03" node_set="FixedDisplacement03" type="zero displacement">
			<x_dof>0</x_dof>
			<y_dof>1</y_dof>
			<z_dof>0</z_dof>
		</bc>
	</Boundary>
	<Constraints>
		<constraint name="RigidWall01" surface="RigidWall01" type="rigid_wall">
			<laugon>PENALTY</laugon>
			<tolerance>0.01</tolerance>
			<penalty>1000</penalty>
			<offset lc="1">1</offset>
			<plane>0,1,0,-1</plane>
		</constraint>
	</Constraints>
	<LoadData>
		<load_controller id="1" name="LC1" type="loadcurve">
			<interpolate>LINEAR</interpolate>
			<extend>CONSTANT</extend>
			<points>
				<pt>0,0</pt>
				<pt>1,0.4</pt>
			</points>
		</load_controller>
	</LoadData>
	<Output>
		<plotfile type="febio">
			<var type="displacement"/>
			<var type="reaction forces"/>
			<var type="relative volume"/>
			<var type="stress"/>
		</plotfile>
	</Output>
</febio_spec>
