<?xml version="1.0" encoding="ISO-8859-1"?>
<!--
The top of a cylinder with a cavity is initially depressed so that the volume of the cavity
is reduced.  The volume of the cavity is then held constant and the top of the cylinder returns
to it's initial position.
-->
<febio_spec version="4.0">
	<Module type="solid"/>
	<Globals>
		<Constants>
			<T>0</T>
			<R>0</R>
			<Fc>0</Fc>
		</Constants>
	</Globals>
	<Material>
		<material id="1" name="Material1" type="neo-Hookean">
			<density>1</density>
			<E>1</E>
			<v>0</v>
		</material>
	</Material>
	<Mesh>
		<Nodes name="Object01">
			<node id="1">0.5,0,0</node>
			<node id="2">0.625,0,0</node>
			<node id="3">0.75,0,0</node>
			<node id="4">0.875,0,0</node>
			<node id="5">1,0,0</node>
			<node id="6">0.49039264,0.097545159,0</node>
			<node id="7">0.6129908,0.12193145,0</node>
			<node id="8">0.73558896,0.14631774,0</node>
			<node id="9">0.85818712,0.17070403,0</node>
			<node id="10">0.98078528,0.19509032,0</node>
			<node id="11">0.46193977,0.19134171,0</node>
			<node id="12">0.57742471,0.23917714,0</node>
			<node id="13">0.69290965,0.28701257,0</node>
			<node id="14">0.80839459,0.334848,0</node>
			<node id="15">0.92387954,0.38268343,0</node>
			<node id="16">0.41573481,0.27778511,0</node>
			<node id="17">0.51966851,0.34723139,0</node>
			<node id="18">0.62360221,0.41667767,0</node>
			<node id="19">0.72753592,0.48612395,0</node>
			<node id="20">0.83146962,0.55557022,0</node>
<!-- ... 2448 like lines cut -->
		</Nodes>
		<Elements type="hex8" name="Part6">
			<elem id="1">1,2,7,6,161,162,167,166</elem>
			<elem id="2">2,3,8,7,162,163,168,167</elem>
			<elem id="3">3,4,9,8,163,164,169,168</elem>
			<elem id="4">4,5,10,9,164,165,170,169</elem>
			<elem id="5">6,7,12,11,166,167,172,171</elem>
			<elem id="6">7,8,13,12,167,168,173,172</elem>
			<elem id="7">8,9,14,13,168,169,174,173</elem>
			<elem id="8">9,10,15,14,169,170,175,174</elem>
			<elem id="9">11,12,17,16,171,172,177,176</elem>
			<elem id="10">12,13,18,17,172,173,178,177</elem>
			<elem id="11">13,14,19,18,173,174,179,178</elem>
			<elem id="12">14,15,20,19,174,175,180,179</elem>
			<elem id="13">16,17,22,21,176,177,182,181</elem>
			<elem id="14">17,18,23,22,177,178,183,182</elem>
			<elem id="15">18,19,24,23,178,179,184,183</elem>
			<elem id="16">19,20,25,24,179,180,185,184</elem>
			<elem id="17">21,22,27,26,181,182,187,186</elem>
			<elem id="18">22,23,28,27,182,183,188,187</elem>
			<elem id="19">23,24,29,28,183,184,189,188</elem>
			<elem id="20">24,25,30,29,184,185,190,189</elem>
<!-- ... 1260 like lines cut -->
		</Elements>
		<Elements type="hex8" name="Part7">
			<elem id="1281">1761,1779,1905,1799,1770,1784,1908,1800</elem>
			<elem id="1282">1779,1780,1906,1905,1784,1783,1909,1908</elem>
			<elem id="1283">1780,1781,1907,1906,1783,1782,1910,1909</elem>
			<elem id="1284">1781,1762,1785,1907,1782,1771,1790,1910</elem>
			<elem id="1285">1799,1905,1902,1798,1800,1908,1911,1801</elem>
			<elem id="1286">1905,1906,1903,1902,1908,1909,1912,1911</elem>
			<elem id="1287">1906,1907,1904,1903,1909,1910,1913,1912</elem>
			<elem id="1288">1907,1785,1786,1904,1910,1790,1789,1913</elem>
			<elem id="1289">1798,1902,1899,1797,1801,1911,1914,1802</elem>
			<elem id="1290">1902,1903,1900,1899,1911,1912,1915,1914</elem>
			<elem id="1291">1903,1904,1901,1900,1912,1913,1916,1915</elem>
			<elem id="1292">1904,1786,1787,1901,1913,1789,1788,1916</elem>
			<elem id="1293">1797,1899,1793,1764,1802,1914,1794,1773</elem>
			<elem id="1294">1899,1900,1792,1793,1914,1915,1795,1794</elem>
			<elem id="1295">1900,1901,1791,1792,1915,1916,1796,1795</elem>
			<elem id="1296">1901,1787,1765,1791,1916,1788,1774,1796</elem>
			<elem id="1297">1762,1803,1923,1785,1771,1808,1926,1790</elem>
			<elem id="1298">1803,1804,1924,1923,1808,1807,1927,1926</elem>
			<elem id="1299">1804,1805,1925,1924,1807,1806,1928,1927</elem>
			<elem id="1300">1805,1763,1809,1925,1806,1772,1814,1928</elem>
<!-- ... 172 like lines cut -->
		</Elements>
		<Elements type="hex8" name="Part8">
			<elem id="1473">2115,2133,2259,2153,2124,2138,2262,2154</elem>
			<elem id="1474">2133,2134,2260,2259,2138,2137,2263,2262</elem>
			<elem id="1475">2134,2135,2261,2260,2137,2136,2264,2263</elem>
			<elem id="1476">2135,2116,2139,2261,2136,2125,2144,2264</elem>
			<elem id="1477">2153,2259,2256,2152,2154,2262,2265,2155</elem>
			<elem id="1478">2259,2260,2257,2256,2262,2263,2266,2265</elem>
			<elem id="1479">2260,2261,2258,2257,2263,2264,2267,2266</elem>
			<elem id="1480">2261,2139,2140,2258,2264,2144,2143,2267</elem>
			<elem id="1481">2152,2256,2253,2151,2155,2265,2268,2156</elem>
			<elem id="1482">2256,2257,2254,2253,2265,2266,2269,2268</elem>
			<elem id="1483">2257,2258,2255,2254,2266,2267,2270,2269</elem>
			<elem id="1484">2258,2140,2141,2255,2267,2143,2142,2270</elem>
			<elem id="1485">2151,2253,2147,2118,2156,2268,2148,2127</elem>
			<elem id="1486">2253,2254,2146,2147,2268,2269,2149,2148</elem>
			<elem id="1487">2254,2255,2145,2146,2269,2270,2150,2149</elem>
			<elem id="1488">2255,2141,2119,2145,2270,2142,2128,2150</elem>
			<elem id="1489">2116,2157,2277,2139,2125,2162,2280,2144</elem>
			<elem id="1490">2157,2158,2278,2277,2162,2161,2281,2280</elem>
			<elem id="1491">2158,2159,2279,2278,2161,2160,2282,2281</elem>
			<elem id="1492">2159,2117,2163,2279,2160,2126,2168,2282</elem>
<!-- ... 172 like lines cut -->
		</Elements>
		<NodeSet name="FixedDisplacement01">
			1, 2, 3, 4, 5, 6, 7, 8,
			9, 10, 11, 12, 13, 14, 15, 16,
			17, 18, 19, 20, 21, 22, 23, 24,
			25, 26, 27, 28, 29, 30, 31, 32,
			33, 34, 35, 36, 37, 38, 39, 40,
			41, 42, 43, 44, 45, 46, 47, 48,
			49, 50, 51, 52, 53, 54, 55, 56,
			57, 58, 59, 60, 61, 62, 63, 64,
			65, 66, 67, 68, 69, 70, 71, 72,
			73, 74, 75, 76, 77, 78, 79, 80,
			81, 82, 83, 84, 85, 86, 87, 88,
			89, 90, 91, 92, 93, 94, 95, 96,
			97, 98, 99, 100, 101, 102, 103, 104,
			105, 106, 107, 108, 109, 110, 111, 112,
			113, 114, 115, 116, 117, 118, 119, 120,
			121, 122, 123, 124, 125, 126, 127, 128,
			129, 130, 131, 132, 133, 134, 135, 136,
			137, 138, 139, 140, 141, 142, 143, 144,
			145, 146, 147, 148, 149, 150, 151, 152,
			153, 154, 155, 156, 157, 158, 159, 160,
<!-- ... 65 like lines cut -->
		</NodeSet>
		<NodeSet name="PrescribedBC244">
			1601, 1602, 1603, 1604, 1605, 1606, 1607, 1608,
			1609, 1610, 1611, 1612, 1613, 1614, 1615, 1616,
			1617, 1618, 1619, 1620, 1621, 1622, 1623, 1624,
			1625, 1626, 1627, 1628, 1629, 1630, 1631, 1632,
			1633, 1634, 1635, 1636, 1637, 1638, 1639, 1640,
			1641, 1642, 1643, 1644, 1645, 1646, 1647, 1648,
			1649, 1650, 1651, 1652, 1653, 1654, 1655, 1656,
			1657, 1658, 1659, 1660, 1661, 1662, 1663, 1664,
			1665, 1666, 1667, 1668, 1669, 1670, 1671, 1672,
			1673, 1674, 1675, 1676, 1677, 1678, 1679, 1680,
			1681, 1682, 1683, 1684, 1685, 1686, 1687, 1688,
			1689, 1690, 1691, 1692, 1693, 1694, 1695, 1696,
			1697, 1698, 1699, 1700, 1701, 1702, 1703, 1704,
			1705, 1706, 1707, 1708, 1709, 1710, 1711, 1712,
			1713, 1714, 1715, 1716, 1717, 1718, 1719, 1720,
			1721, 1722, 1723, 1724, 1725, 1726, 1727, 1728,
			1729, 1730, 1731, 1732, 1733, 1734, 1735, 1736,
			1737, 1738, 1739, 1740, 1741, 1742, 1743, 1744,
			1745, 1746, 1747, 1748, 1749, 1750, 1751, 1752,
			1753, 1754, 1755, 1756, 1757, 1758, 1759, 1760,
<!-- ... 65 like lines cut -->
		</NodeSet>
		<NodeSet name="unnamed_set01">
			1685
		</NodeSet>
		<Surface name="VolumeConstraintSurface01">
			<quad4 id="1">166,161,321,326</quad4>
			<quad4 id="2">171,166,326,331</quad4>
			<quad4 id="3">176,171,331,336</quad4>
			<quad4 id="4">181,176,336,341</quad4>
			<quad4 id="5">186,181,341,346</quad4>
			<quad4 id="6">191,186,346,351</quad4>
			<quad4 id="7">196,191,351,356</quad4>
			<quad4 id="8">201,196,356,361</quad4>
			<quad4 id="9">206,201,361,366</quad4>
			<quad4 id="10">211,206,366,371</quad4>
			<quad4 id="11">216,211,371,376</quad4>
			<quad4 id="12">221,216,376,381</quad4>
			<quad4 id="13">226,221,381,386</quad4>
			<quad4 id="14">231,226,386,391</quad4>
			<quad4 id="15">236,231,391,396</quad4>
			<quad4 id="16">241,236,396,401</quad4>
			<quad4 id="17">246,241,401,406</quad4>
			<quad4 id="18">251,246,406,411</quad4>
			<quad4 id="19">256,251,411,416</quad4>
			<quad4 id="20">261,256,416,421</quad4>
<!-- ... 620 like lines cut -->
		</Surface>
	</Mesh>
	<MeshDomains>
		<SolidDomain name="Part6" mat="Material1"/>
		<SolidDomain name="Part7" mat="Material1"/>
		<SolidDomain name="Part8" mat="Material1"/>
	</MeshDomains>
	<Boundary>
		<bc name="FixedDisplacement01" node_set="FixedDisplacement01" type="zero displacement">
			<x_dof>1</x_dof>
			<y_dof>1</y_dof>
			<z_dof>1</z_dof>
		</bc>
		<bc name="PrescribedBC244" node_set="PrescribedBC244" type="prescribed displacement">
			<dof>z</dof>
			<value lc="1">-0.5</value>
			<relative>0</relative>
		</bc>
	</Boundary>
	<Constraints>
	</Constraints>
	<Step>
		<step id="1" name="Step01">
			<Control>
				<analysis>STATIC</analysis>
				<time_steps>10</time_steps>
				<step_size>0.1</step_size>
				<plot_zero_state>0</plot_zero_state>
				<plot_range>0,-1</plot_range>
				<plot_level>PLOT_MAJOR_ITRS</plot_level>
				<output_level>OUTPUT_MAJOR_ITRS</output_level>
				<plot_stride>1</plot_stride>
				<adaptor_re_solve>1</adaptor_re_solve>
				<time_stepper type="default">
					<max_retries>5</max_retries>
					<opt_iter>10</opt_iter>
					<dtmin>0.01</dtmin>
					<dtmax>0.1</dtmax>
					<aggressiveness>0</aggressiveness>
					<cutback>0.5</cutback>
					<dtforce>0</dtforce>
				</time_stepper>
				<solver type="solid">
					<symmetric_stiffness>symmetric</symmetric_stiffness>
					<equation_scheme>staggered</equation_scheme>
					<equation_order>default</equation_order>
					<optimize_bw>0</optimize_bw>
					<lstol>0.9</lstol>
					<lsmin>0.01</lsmin>
					<lsiter>5</lsiter>
					<max_refs>15</max_refs>
					<check_zero_diagonal>0</check_zero_diagonal>
					<zero_diagonal_tol>0</zero_diagonal_tol>
					<force_partition>0</force_partition>
					<reform_each_time_step>1</reform_each_time_step>
					<reform_augment>0</reform_augment>
					<diverge_reform>1</diverge_reform>
					<min_residual>1e-20</min_residual>
					<max_residual>0</max_residual>
					<dtol>0.001</dtol>
					<etol>0.01</etol>
					<rtol>0</rtol>
					<rhoi>-2</rhoi>
					<alpha>1</alpha>
					<beta>0.25</beta>
					<gamma>0.5</gamma>
					<logSolve>0</logSolve>
					<arc_length>0</arc_length>
					<arc_length_scale>0</arc_length_scale>
					<qn_method type="BFGS">
						<max_ups>10</max_ups>
						<max_buffer_size>0</max_buffer_size>
						<cycle_buffer>1</cycle_buffer>
						<cmax>100000</cmax>
					</qn_method>
				</solver>
			</Control>
		</step>
		<step id="2" name="Step02">
			<Control>
				<analysis>STATIC</analysis>
				<time_steps>10</time_steps>
				<step_size>0.1</step_size>
				<plot_zero_state>0</plot_zero_state>
				<plot_range>0,-1</plot_range>
				<plot_level>PLOT_MAJOR_ITRS</plot_level>
				<output_level>OUTPUT_MAJOR_ITRS</output_level>
				<plot_stride>1</plot_stride>
				<adaptor_re_solve>1</adaptor_re_solve>
				<time_stepper type="default">
					<max_retries>5</max_retries>
					<opt_iter>100</opt_iter>
					<dtmin>0.01</dtmin>
					<dtmax>0.1</dtmax>
					<aggressiveness>0</aggressiveness>
					<cutback>0.5</cutback>
					<dtforce>0</dtforce>
				</time_stepper>
				<solver type="solid">
					<symmetric_stiffness>symmetric</symmetric_stiffness>
					<equation_scheme>staggered</equation_scheme>
					<equation_order>default</equation_order>
					<optimize_bw>0</optimize_bw>
					<lstol>0.9</lstol>
					<lsmin>0.01</lsmin>
					<lsiter>5</lsiter>
					<max_refs>15</max_refs>
					<check_zero_diagonal>0</check_zero_diagonal>
					<zero_diagonal_tol>0</zero_diagonal_tol>
					<force_partition>0</force_partition>
					<reform_each_time_step>1</reform_each_time_step>
					<reform_augment>0</reform_augment>
					<diverge_reform>1</diverge_reform>
					<min_residual>1e-20</min_residual>
					<max_residual>0</max_residual>
					<dtol>0.001</dtol>
					<etol>0.01</etol>
					<rtol>0</rtol>
					<rhoi>-2</rhoi>
					<alpha>1</alpha>
					<beta>0.25</beta>
					<gamma>0.5</gamma>
					<logSolve>0</logSolve>
					<arc_length>0</arc_length>
					<arc_length_scale>0</arc_length_scale>
					<qn_method type="BFGS">
						<max_ups>10</max_ups>
						<max_buffer_size>0</max_buffer_size>
						<cycle_buffer>1</cycle_buffer>
						<cmax>100000</cmax>
					</qn_method>
				</solver>
			</Control>
			<Constraints>
				<constraint name="VolumeConstraint02" surface="VolumeConstraintSurface01" type="volume">
					<laugon>1</laugon>
					<augtol>0.01</augtol>
					<penalty>-0.5</penalty>
				</constraint>
			</Constraints>
		</step>
	</Step>
	<LoadData>
		<load_controller id="1" name="LC1" type="loadcurve">
			<interpolate>LINEAR</interpolate>
			<extend>CONSTANT</extend>
			<points>
				<pt>0,0</pt>
				<pt>1,0.6</pt>
				<pt>2,0</pt>
			</points>
		</load_controller>
	</LoadData>
	<Output>
		<plotfile type="febio">
			<var type="displacement"/>
			<var type="stress"/>
		</plotfile>
		<logfile>
			<node_data data="ux" node_set="unnamed_set01"/>
		</logfile>
	</Output>
</febio_spec>
