<?xml version="1.0" encoding="ISO-8859-1"?>
<!--
Problem Description:
	A ring is compressed between two stiffer blocks with prescribed y-displacement
	of 6.2 units each (compressing the ring) from time t=0 to t=6.2.
Main Features:
	Sliding Contact
Secondary Features:
	
Materials:
	Neo-Hookean
Degrees of Freedom: 2781
Results:
	Steps Completed: 
	Equilibrium Iterations: 
	Right Hand Evaluations: 
	Siffness Reformations: 
	Other:
		The outer edges of the ring have an x-displacement of 3.11 units at time t=1.
Comments:
	
-->
<febio_spec version="1.0">
	<Control>
		<title>Pinched Ring</title>
		<time_steps>62</time_steps>
		<step_size>0.1</step_size>
		<max_refs>15</max_refs>
		<max_ups>10</max_ups>
		<dtol>0.001</dtol>
		<etol>0.01</etol>
		<rtol>0</rtol>
		<lstol>0.9</lstol>
		<pressure_stiffness>0</pressure_stiffness>
		<plot_level>PLOT_DEFAULT</plot_level>
	</Control>
	<Material>
		<material id="1" name="ring" type="neo-Hookean">
			<E>10000</E>
			<v>0.3</v>
		</material>
		<material id="2" name="Material 2" type="neo-Hookean">
			<E>100000</E>
			<v>0.3</v>
		</material>
	</Material>
	<Geometry>
		<Nodes>
			<node id="1"> 6.0000000e+000, 0.0000000e+000, 0.0000000e+000</node>
			<node id="2"> 6.5000000e+000, 0.0000000e+000, 0.0000000e+000</node>
			<node id="3"> 7.0000000e+000, 0.0000000e+000, 0.0000000e+000</node>
			<node id="4"> 7.5000000e+000, 0.0000000e+000, 0.0000000e+000</node>
			<node id="5"> 8.0000000e+000, 0.0000000e+000, 0.0000000e+000</node>
			<node id="6"> 5.9881604e+000, 3.7674311e-001, 0.0000000e+000</node>
			<node id="7"> 6.4871737e+000, 4.0813837e-001, 0.0000000e+000</node>
			<node id="8"> 6.9861871e+000, 4.3953363e-001, 0.0000000e+000</node>
			<node id="9"> 7.4852005e+000, 4.7092889e-001, 0.0000000e+000</node>
			<node id="10"> 7.9842138e+000, 5.0232415e-001, 0.0000000e+000</node>
			<node id="11"> 5.9526882e+000, 7.5199939e-001, 0.0000000e+000</node>
			<node id="12"> 6.4487456e+000, 8.1466600e-001, 0.0000000e+000</node>
			<node id="13"> 6.9448029e+000, 8.7733262e-001, 0.0000000e+000</node>
			<node id="14"> 7.4408603e+000, 9.3999924e-001, 0.0000000e+000</node>
			<node id="15"> 7.9369176e+000, 1.0026659e+000, 0.0000000e+000</node>
			<node id="16"> 5.8937235e+000, 1.1242879e+000, 0.0000000e+000</node>
			<node id="17"> 6.3848671e+000, 1.2179785e+000, 0.0000000e+000</node>
			<node id="18"> 6.8760108e+000, 1.3116692e+000, 0.0000000e+000</node>
			<node id="19"> 7.3671544e+000, 1.4053598e+000, 0.0000000e+000</node>
			<node id="20"> 7.8582980e+000, 1.4990505e+000, 0.0000000e+000</node>
<!-- ... 1400 like lines cut -->
		</Nodes>
		<Elements>
			<hex8 id="1" mat="1">     1,     2,     7,     6,   501,   502,   507,   506</hex8>
			<hex8 id="2" mat="1">     2,     3,     8,     7,   502,   503,   508,   507</hex8>
			<hex8 id="3" mat="1">     3,     4,     9,     8,   503,   504,   509,   508</hex8>
			<hex8 id="4" mat="1">     4,     5,    10,     9,   504,   505,   510,   509</hex8>
			<hex8 id="5" mat="1">     6,     7,    12,    11,   506,   507,   512,   511</hex8>
			<hex8 id="6" mat="1">     7,     8,    13,    12,   507,   508,   513,   512</hex8>
			<hex8 id="7" mat="1">     8,     9,    14,    13,   508,   509,   514,   513</hex8>
			<hex8 id="8" mat="1">     9,    10,    15,    14,   509,   510,   515,   514</hex8>
			<hex8 id="9" mat="1">    11,    12,    17,    16,   511,   512,   517,   516</hex8>
			<hex8 id="10" mat="1">    12,    13,    18,    17,   512,   513,   518,   517</hex8>
			<hex8 id="11" mat="1">    13,    14,    19,    18,   513,   514,   519,   518</hex8>
			<hex8 id="12" mat="1">    14,    15,    20,    19,   514,   515,   520,   519</hex8>
			<hex8 id="13" mat="1">    16,    17,    22,    21,   516,   517,   522,   521</hex8>
			<hex8 id="14" mat="1">    17,    18,    23,    22,   517,   518,   523,   522</hex8>
			<hex8 id="15" mat="1">    18,    19,    24,    23,   518,   519,   524,   523</hex8>
			<hex8 id="16" mat="1">    19,    20,    25,    24,   519,   520,   525,   524</hex8>
			<hex8 id="17" mat="1">    21,    22,    27,    26,   521,   522,   527,   526</hex8>
			<hex8 id="18" mat="1">    22,    23,    28,    27,   522,   523,   528,   527</hex8>
			<hex8 id="19" mat="1">    23,    24,    29,    28,   523,   524,   529,   528</hex8>
			<hex8 id="20" mat="1">    24,    25,    30,    29,   524,   525,   530,   529</hex8>
<!-- ... 540 like lines cut -->
		</Elements>
	</Geometry>
	<Boundary>
		<fix>
			<node id="1" bc="z"></node>
			<node id="2" bc="z"></node>
			<node id="3" bc="z"></node>
			<node id="4" bc="z"></node>
			<node id="5" bc="z"></node>
			<node id="6" bc="z"></node>
			<node id="7" bc="z"></node>
			<node id="8" bc="z"></node>
			<node id="9" bc="z"></node>
			<node id="10" bc="z"></node>
			<node id="11" bc="z"></node>
			<node id="12" bc="z"></node>
			<node id="13" bc="z"></node>
			<node id="14" bc="z"></node>
			<node id="15" bc="z"></node>
			<node id="16" bc="z"></node>
			<node id="17" bc="z"></node>
			<node id="18" bc="z"></node>
			<node id="19" bc="z"></node>
			<node id="20" bc="z"></node>
<!-- ... 980 like lines cut -->
		</fix>
		<fix>
			<node id="126" bc="x"></node>
			<node id="127" bc="x"></node>
			<node id="128" bc="x"></node>
			<node id="129" bc="x"></node>
			<node id="130" bc="x"></node>
			<node id="376" bc="x"></node>
			<node id="377" bc="x"></node>
			<node id="378" bc="x"></node>
			<node id="379" bc="x"></node>
			<node id="380" bc="x"></node>
			<node id="626" bc="x"></node>
			<node id="627" bc="x"></node>
			<node id="628" bc="x"></node>
			<node id="629" bc="x"></node>
			<node id="630" bc="x"></node>
			<node id="876" bc="x"></node>
			<node id="877" bc="x"></node>
			<node id="878" bc="x"></node>
			<node id="879" bc="x"></node>
			<node id="880" bc="x"></node>
		</fix>
		<fix>
			<node id="1" bc="y"></node>
			<node id="2" bc="y"></node>
			<node id="3" bc="y"></node>
			<node id="4" bc="y"></node>
			<node id="5" bc="y"></node>
			<node id="251" bc="y"></node>
			<node id="252" bc="y"></node>
			<node id="253" bc="y"></node>
			<node id="254" bc="y"></node>
			<node id="255" bc="y"></node>
			<node id="501" bc="y"></node>
			<node id="502" bc="y"></node>
			<node id="503" bc="y"></node>
			<node id="504" bc="y"></node>
			<node id="505" bc="y"></node>
			<node id="751" bc="y"></node>
			<node id="752" bc="y"></node>
			<node id="753" bc="y"></node>
			<node id="754" bc="y"></node>
			<node id="755" bc="y"></node>
		</fix>
		<fix>
			<node id="1001" bc="z"></node>
			<node id="1002" bc="z"></node>
			<node id="1003" bc="z"></node>
			<node id="1004" bc="z"></node>
			<node id="1005" bc="z"></node>
			<node id="1006" bc="z"></node>
			<node id="1007" bc="z"></node>
			<node id="1008" bc="z"></node>
			<node id="1009" bc="z"></node>
			<node id="1010" bc="z"></node>
			<node id="1011" bc="z"></node>
			<node id="1012" bc="z"></node>
			<node id="1013" bc="z"></node>
			<node id="1014" bc="z"></node>
			<node id="1015" bc="z"></node>
			<node id="1016" bc="z"></node>
			<node id="1017" bc="z"></node>
			<node id="1018" bc="z"></node>
			<node id="1019" bc="z"></node>
			<node id="1020" bc="z"></node>
<!-- ... 190 like lines cut -->
		</fix>
		<fix>
			<node id="1101" bc="x"></node>
			<node id="1102" bc="x"></node>
			<node id="1103" bc="x"></node>
			<node id="1104" bc="x"></node>
			<node id="1105" bc="x"></node>
			<node id="1106" bc="x"></node>
			<node id="1107" bc="x"></node>
			<node id="1108" bc="x"></node>
			<node id="1109" bc="x"></node>
			<node id="1110" bc="x"></node>
		</fix>
		<fix>
			<node id="1211" bc="z"></node>
			<node id="1212" bc="z"></node>
			<node id="1213" bc="z"></node>
			<node id="1214" bc="z"></node>
			<node id="1215" bc="z"></node>
			<node id="1216" bc="z"></node>
			<node id="1217" bc="z"></node>
			<node id="1218" bc="z"></node>
			<node id="1219" bc="z"></node>
			<node id="1220" bc="z"></node>
			<node id="1221" bc="z"></node>
			<node id="1222" bc="z"></node>
			<node id="1223" bc="z"></node>
			<node id="1224" bc="z"></node>
			<node id="1225" bc="z"></node>
			<node id="1226" bc="z"></node>
			<node id="1227" bc="z"></node>
			<node id="1228" bc="z"></node>
			<node id="1229" bc="z"></node>
			<node id="1230" bc="z"></node>
<!-- ... 190 like lines cut -->
		</fix>
		<fix>
			<node id="1311" bc="x"></node>
			<node id="1313" bc="x"></node>
			<node id="1314" bc="x"></node>
			<node id="1315" bc="x"></node>
			<node id="1316" bc="x"></node>
			<node id="1317" bc="x"></node>
			<node id="1318" bc="x"></node>
			<node id="1319" bc="x"></node>
			<node id="1320" bc="x"></node>
		</fix>
		<prescribe>
			<node id="1009" bc="y" lc="1">1</node>
			<node id="1010" bc="y" lc="1">1</node>
			<node id="1019" bc="y" lc="1">1</node>
			<node id="1020" bc="y" lc="1">1</node>
			<node id="1029" bc="y" lc="1">1</node>
			<node id="1030" bc="y" lc="1">1</node>
			<node id="1039" bc="y" lc="1">1</node>
			<node id="1040" bc="y" lc="1">1</node>
			<node id="1049" bc="y" lc="1">1</node>
			<node id="1050" bc="y" lc="1">1</node>
			<node id="1059" bc="y" lc="1">1</node>
			<node id="1060" bc="y" lc="1">1</node>
			<node id="1069" bc="y" lc="1">1</node>
			<node id="1070" bc="y" lc="1">1</node>
			<node id="1079" bc="y" lc="1">1</node>
			<node id="1080" bc="y" lc="1">1</node>
			<node id="1089" bc="y" lc="1">1</node>
			<node id="1090" bc="y" lc="1">1</node>
			<node id="1099" bc="y" lc="1">1</node>
			<node id="1100" bc="y" lc="1">1</node>
<!-- ... 64 like lines cut -->
		</prescribe>
		<contact type="sliding_with_gaps">
			<laugon>1</laugon>
			<tolerance>0.01</tolerance>
			<penalty>10000</penalty>
			<two_pass>1</two_pass>
			<fric_penalty>1</fric_penalty>
			<surface type="master">
				<quad4 id="1">    90,    95,   595,   590</quad4>
				<quad4 id="2">    95,   100,   600,   595</quad4>
				<quad4 id="3">   100,   105,   605,   600</quad4>
				<quad4 id="4">   105,   110,   610,   605</quad4>
				<quad4 id="5">   110,   115,   615,   610</quad4>
				<quad4 id="6">   115,   120,   620,   615</quad4>
				<quad4 id="7">   120,   125,   625,   620</quad4>
				<quad4 id="8">   125,   130,   630,   625</quad4>
				<quad4 id="9">   130,   135,   635,   630</quad4>
				<quad4 id="10">   135,   140,   640,   635</quad4>
				<quad4 id="11">   140,   145,   645,   640</quad4>
				<quad4 id="12">   145,   150,   650,   645</quad4>
				<quad4 id="13">   150,   155,   655,   650</quad4>
				<quad4 id="14">   155,   160,   660,   655</quad4>
				<quad4 id="15">   160,   165,   665,   660</quad4>
				<quad4 id="16">   165,   170,   670,   665</quad4>
			</surface>
			<surface type="slave">
				<quad4 id="1">  1001,  1011,  1012,  1002</quad4>
				<quad4 id="2">  1011,  1021,  1022,  1012</quad4>
				<quad4 id="3">  1021,  1031,  1032,  1022</quad4>
				<quad4 id="4">  1031,  1041,  1042,  1032</quad4>
				<quad4 id="5">  1041,  1051,  1052,  1042</quad4>
				<quad4 id="6">  1051,  1061,  1062,  1052</quad4>
				<quad4 id="7">  1061,  1071,  1072,  1062</quad4>
				<quad4 id="8">  1071,  1081,  1082,  1072</quad4>
				<quad4 id="9">  1081,  1091,  1092,  1082</quad4>
				<quad4 id="10">  1091,  1101,  1102,  1092</quad4>
				<quad4 id="11">  1101,  1111,  1112,  1102</quad4>
				<quad4 id="12">  1111,  1121,  1122,  1112</quad4>
				<quad4 id="13">  1121,  1131,  1132,  1122</quad4>
				<quad4 id="14">  1131,  1141,  1142,  1132</quad4>
				<quad4 id="15">  1141,  1151,  1152,  1142</quad4>
				<quad4 id="16">  1151,  1161,  1162,  1152</quad4>
				<quad4 id="17">  1161,  1171,  1172,  1162</quad4>
				<quad4 id="18">  1171,  1181,  1182,  1172</quad4>
				<quad4 id="19">  1181,  1191,  1192,  1182</quad4>
				<quad4 id="20">  1191,  1201,  1202,  1192</quad4>
			</surface>
		</contact>
		<contact type="sliding_with_gaps">
			<laugon>1</laugon>
			<tolerance>0.01</tolerance>
			<penalty>10000</penalty>
			<two_pass>1</two_pass>
			<fric_penalty>1</fric_penalty>
			<surface type="master">
				<quad4 id="1">    90,    95,   595,   590</quad4>
				<quad4 id="2">    95,   100,   600,   595</quad4>
				<quad4 id="3">   100,   105,   605,   600</quad4>
				<quad4 id="4">   105,   110,   610,   605</quad4>
				<quad4 id="5">   110,   115,   615,   610</quad4>
				<quad4 id="6">   115,   120,   620,   615</quad4>
				<quad4 id="7">   120,   125,   625,   620</quad4>
				<quad4 id="8">   125,   130,   630,   625</quad4>
				<quad4 id="9">   130,   135,   635,   630</quad4>
				<quad4 id="10">   135,   140,   640,   635</quad4>
				<quad4 id="11">   140,   145,   645,   640</quad4>
				<quad4 id="12">   145,   150,   650,   645</quad4>
				<quad4 id="13">   150,   155,   655,   650</quad4>
				<quad4 id="14">   155,   160,   660,   655</quad4>
				<quad4 id="15">   160,   165,   665,   660</quad4>
				<quad4 id="16">   165,   170,   670,   665</quad4>
				<quad4 id="17">   340,   345,   845,   840</quad4>
				<quad4 id="18">   345,   350,   850,   845</quad4>
				<quad4 id="19">   350,   355,   855,   850</quad4>
				<quad4 id="20">   355,   360,   860,   855</quad4>
<!-- ... 12 like lines cut -->
			</surface>
			<surface type="slave">
				<quad4 id="1">  1229,  1219,  1220,  1230</quad4>
				<quad4 id="2">  1239,  1229,  1230,  1240</quad4>
				<quad4 id="3">  1249,  1239,  1240,  1250</quad4>
				<quad4 id="4">  1259,  1249,  1250,  1260</quad4>
				<quad4 id="5">  1269,  1259,  1260,  1270</quad4>
				<quad4 id="6">  1279,  1269,  1270,  1280</quad4>
				<quad4 id="7">  1289,  1279,  1280,  1290</quad4>
				<quad4 id="8">  1299,  1289,  1290,  1300</quad4>
				<quad4 id="9">  1309,  1299,  1300,  1310</quad4>
				<quad4 id="10">  1319,  1309,  1310,  1320</quad4>
				<quad4 id="11">  1329,  1319,  1320,  1330</quad4>
				<quad4 id="12">  1339,  1329,  1330,  1340</quad4>
				<quad4 id="13">  1349,  1339,  1340,  1350</quad4>
				<quad4 id="14">  1359,  1349,  1350,  1360</quad4>
				<quad4 id="15">  1369,  1359,  1360,  1370</quad4>
				<quad4 id="16">  1379,  1369,  1370,  1380</quad4>
				<quad4 id="17">  1389,  1379,  1380,  1390</quad4>
				<quad4 id="18">  1399,  1389,  1390,  1400</quad4>
				<quad4 id="19">  1409,  1399,  1400,  1410</quad4>
				<quad4 id="20">  1419,  1409,  1410,  1420</quad4>
			</surface>
		</contact>
		<contact type="sliding_with_gaps">
			<laugon>1</laugon>
			<tolerance>0.01</tolerance>
			<penalty>1000</penalty>
			<two_pass>1</two_pass>
			<fric_penalty>1</fric_penalty>
			<surface type="master">
				<quad4 id="1">   331,   831,   836,   336</quad4>
				<quad4 id="2">   336,   836,   841,   341</quad4>
				<quad4 id="3">   341,   841,   846,   346</quad4>
				<quad4 id="4">   346,   846,   851,   351</quad4>
				<quad4 id="5">   351,   851,   856,   356</quad4>
				<quad4 id="6">   356,   856,   861,   361</quad4>
				<quad4 id="7">   361,   861,   866,   366</quad4>
				<quad4 id="8">   366,   866,   871,   371</quad4>
				<quad4 id="9">   371,   871,   876,   376</quad4>
				<quad4 id="10">   376,   876,   881,   381</quad4>
				<quad4 id="11">   381,   881,   886,   386</quad4>
				<quad4 id="12">   386,   886,   891,   391</quad4>
				<quad4 id="13">   391,   891,   896,   396</quad4>
				<quad4 id="14">   396,   896,   901,   401</quad4>
				<quad4 id="15">   401,   901,   906,   406</quad4>
				<quad4 id="16">   406,   906,   911,   411</quad4>
				<quad4 id="17">   411,   911,   916,   416</quad4>
				<quad4 id="18">   416,   916,   921,   421</quad4>
			</surface>
			<surface type="slave">
				<quad4 id="1">    76,   576,   581,    81</quad4>
				<quad4 id="2">    81,   581,   586,    86</quad4>
				<quad4 id="3">    86,   586,   591,    91</quad4>
				<quad4 id="4">    91,   591,   596,    96</quad4>
				<quad4 id="5">    96,   596,   601,   101</quad4>
				<quad4 id="6">   101,   601,   606,   106</quad4>
				<quad4 id="7">   106,   606,   611,   111</quad4>
				<quad4 id="8">   111,   611,   616,   116</quad4>
				<quad4 id="9">   116,   616,   621,   121</quad4>
				<quad4 id="10">   121,   621,   626,   126</quad4>
				<quad4 id="11">   126,   626,   631,   131</quad4>
				<quad4 id="12">   131,   631,   636,   136</quad4>
				<quad4 id="13">   136,   636,   641,   141</quad4>
				<quad4 id="14">   141,   641,   646,   146</quad4>
				<quad4 id="15">   146,   646,   651,   151</quad4>
				<quad4 id="16">   151,   651,   656,   156</quad4>
				<quad4 id="17">   156,   656,   661,   161</quad4>
				<quad4 id="18">   161,   661,   666,   166</quad4>
				<quad4 id="19">   166,   666,   671,   171</quad4>
			</surface>
		</contact>
	</Boundary>
	<LoadData>
		<loadcurve id="1">
			<loadpoint>0,0</loadpoint>
			<loadpoint>6.2,-6.2</loadpoint>
		</loadcurve>
		<loadcurve id="2">
			<loadpoint>0,0</loadpoint>
			<loadpoint>6.2,6.2</loadpoint>
		</loadcurve>
	</LoadData>
</febio_spec>
