<?xml version="1.0" encoding="ISO-8859-1"?>
<febio_spec version="1.0">
	<Control>
		<title></title>
		<time_steps>50</time_steps>
		<step_size>0.02</step_size>
		<max_refs>15</max_refs>
		<max_ups>0</max_ups>
		<dtol>0.001</dtol>
		<etol>0.01</etol>
		<rtol>0</rtol>
		<lstol>0.9</lstol>
		<time_stepper>
			<dtmin>0.001</dtmin>
			<dtmax>0.02</dtmax>
			<max_retries>5</max_retries>
			<opt_iter>100</opt_iter>
		</time_stepper>
		<plot_level>PLOT_DEFAULT</plot_level>
	</Control>
	<Material>
		<material id="1" name="Material 1" type="muscle material">
			<g1>5e2</g1>
			<g2>5e2</g2>
			<p1>0.0</p1>
			<p2>0</p2>
			<k>1e7</k>
			<Lofl>1.0</Lofl>
			<smax>3e5</smax>
			<lam_max>1.4</lam_max>
			<fiber type="vector">1,0,0</fiber>
			<active_contraction lc="2">0.001</active_contraction>
		</material>
	</Material>
	<Geometry>
		<Nodes>
			<node id="1">-2.0000000e+000,-5.0000000e-001, 0.0000000e+000</node>
			<node id="2">-2.0000000e+000,-5.0000000e-001, 2.5000000e-001</node>
			<node id="3">-2.0000000e+000,-5.0000000e-001, 5.0000000e-001</node>
			<node id="4">-2.0000000e+000,-5.0000000e-001, 7.5000000e-001</node>
			<node id="5">-2.0000000e+000,-5.0000000e-001, 1.0000000e+000</node>
			<node id="6">-2.0000000e+000,-2.5000000e-001, 0.0000000e+000</node>
			<node id="7">-2.0000000e+000,-2.5000000e-001, 2.5000000e-001</node>
			<node id="8">-2.0000000e+000,-2.5000000e-001, 5.0000000e-001</node>
			<node id="9">-2.0000000e+000,-2.5000000e-001, 7.5000000e-001</node>
			<node id="10">-2.0000000e+000,-2.5000000e-001, 1.0000000e+000</node>
			<node id="11">-2.0000000e+000, 0.0000000e+000, 0.0000000e+000</node>
			<node id="12">-2.0000000e+000, 0.0000000e+000, 2.5000000e-001</node>
			<node id="13">-2.0000000e+000, 0.0000000e+000, 5.0000000e-001</node>
			<node id="14">-2.0000000e+000, 0.0000000e+000, 7.5000000e-001</node>
			<node id="15">-2.0000000e+000, 0.0000000e+000, 1.0000000e+000</node>
			<node id="16">-2.0000000e+000, 2.5000000e-001, 0.0000000e+000</node>
			<node id="17">-2.0000000e+000, 2.5000000e-001, 2.5000000e-001</node>
			<node id="18">-2.0000000e+000, 2.5000000e-001, 5.0000000e-001</node>
			<node id="19">-2.0000000e+000, 2.5000000e-001, 7.5000000e-001</node>
			<node id="20">-2.0000000e+000, 2.5000000e-001, 1.0000000e+000</node>
<!-- ... 405 like lines cut -->
		</Nodes>
		<Elements>
			<hex8 id="1" mat="1">     1,    26,    31,     6,     2,    27,    32,     7</hex8>
			<hex8 id="2" mat="1">     2,    27,    32,     7,     3,    28,    33,     8</hex8>
			<hex8 id="3" mat="1">     3,    28,    33,     8,     4,    29,    34,     9</hex8>
			<hex8 id="4" mat="1">     4,    29,    34,     9,     5,    30,    35,    10</hex8>
			<hex8 id="5" mat="1">     6,    31,    36,    11,     7,    32,    37,    12</hex8>
			<hex8 id="6" mat="1">     7,    32,    37,    12,     8,    33,    38,    13</hex8>
			<hex8 id="7" mat="1">     8,    33,    38,    13,     9,    34,    39,    14</hex8>
			<hex8 id="8" mat="1">     9,    34,    39,    14,    10,    35,    40,    15</hex8>
			<hex8 id="9" mat="1">    11,    36,    41,    16,    12,    37,    42,    17</hex8>
			<hex8 id="10" mat="1">    12,    37,    42,    17,    13,    38,    43,    18</hex8>
			<hex8 id="11" mat="1">    13,    38,    43,    18,    14,    39,    44,    19</hex8>
			<hex8 id="12" mat="1">    14,    39,    44,    19,    15,    40,    45,    20</hex8>
			<hex8 id="13" mat="1">    16,    41,    46,    21,    17,    42,    47,    22</hex8>
			<hex8 id="14" mat="1">    17,    42,    47,    22,    18,    43,    48,    23</hex8>
			<hex8 id="15" mat="1">    18,    43,    48,    23,    19,    44,    49,    24</hex8>
			<hex8 id="16" mat="1">    19,    44,    49,    24,    20,    45,    50,    25</hex8>
			<hex8 id="17" mat="1">    26,    51,    56,    31,    27,    52,    57,    32</hex8>
			<hex8 id="18" mat="1">    27,    52,    57,    32,    28,    53,    58,    33</hex8>
			<hex8 id="19" mat="1">    28,    53,    58,    33,    29,    54,    59,    34</hex8>
			<hex8 id="20" mat="1">    29,    54,    59,    34,    30,    55,    60,    35</hex8>
<!-- ... 236 like lines cut -->
		</Elements>
	</Geometry>
	<Boundary>
		<fix>
			<node id="1" bc="xyz"></node>
			<node id="2" bc="xy"></node>
			<node id="3" bc="xy"></node>
			<node id="4" bc="xy"></node>
			<node id="5" bc="xy"></node>
			<node id="6" bc="xz"></node>
			<node id="7" bc="x"></node>
			<node id="8" bc="x"></node>
			<node id="9" bc="x"></node>
			<node id="10" bc="x"></node>
			<node id="11" bc="xz"></node>
			<node id="12" bc="x"></node>
			<node id="13" bc="x"></node>
			<node id="14" bc="x"></node>
			<node id="15" bc="x"></node>
			<node id="16" bc="xz"></node>
			<node id="17" bc="x"></node>
			<node id="18" bc="x"></node>
			<node id="19" bc="x"></node>
			<node id="20" bc="x"></node>
			<node id="21" bc="xz"></node>
			<node id="22" bc="x"></node>
			<node id="23" bc="x"></node>
			<node id="24" bc="x"></node>
			<node id="25" bc="x"></node>
			<node id="26" bc="yz"></node>
			<node id="27" bc="y"></node>
			<node id="28" bc="y"></node>
			<node id="29" bc="y"></node>
			<node id="30" bc="y"></node>
			<node id="31" bc="z"></node>
			<node id="36" bc="z"></node>
			<node id="41" bc="z"></node>
			<node id="46" bc="z"></node>
			<node id="51" bc="yz"></node>
			<node id="52" bc="y"></node>
			<node id="53" bc="y"></node>
			<node id="54" bc="y"></node>
			<node id="55" bc="y"></node>
			<node id="56" bc="z"></node>
			<node id="61" bc="z"></node>
			<node id="66" bc="z"></node>
			<node id="71" bc="z"></node>
			<node id="76" bc="yz"></node>
			<node id="77" bc="y"></node>
			<node id="78" bc="y"></node>
			<node id="79" bc="y"></node>
			<node id="80" bc="y"></node>
			<node id="81" bc="z"></node>
			<node id="86" bc="z"></node>
			<node id="91" bc="z"></node>
			<node id="96" bc="z"></node>
			<node id="101" bc="yz"></node>
			<node id="102" bc="y"></node>
			<node id="103" bc="y"></node>
			<node id="104" bc="y"></node>
			<node id="105" bc="y"></node>
			<node id="106" bc="z"></node>
			<node id="111" bc="z"></node>
			<node id="116" bc="z"></node>
			<node id="121" bc="z"></node>
			<node id="126" bc="yz"></node>
			<node id="127" bc="y"></node>
			<node id="128" bc="y"></node>
			<node id="129" bc="y"></node>
			<node id="130" bc="y"></node>
			<node id="131" bc="z"></node>
			<node id="136" bc="z"></node>
			<node id="141" bc="z"></node>
			<node id="146" bc="z"></node>
			<node id="151" bc="yz"></node>
			<node id="152" bc="y"></node>
			<node id="153" bc="y"></node>
			<node id="154" bc="y"></node>
			<node id="155" bc="y"></node>
			<node id="156" bc="z"></node>
			<node id="161" bc="z"></node>
			<node id="166" bc="z"></node>
			<node id="171" bc="z"></node>
			<node id="176" bc="yz"></node>
			<node id="177" bc="y"></node>
			<node id="178" bc="y"></node>
			<node id="179" bc="y"></node>
			<node id="180" bc="y"></node>
			<node id="181" bc="z"></node>
			<node id="186" bc="z"></node>
			<node id="191" bc="z"></node>
			<node id="196" bc="z"></node>
			<node id="201" bc="yz"></node>
			<node id="202" bc="y"></node>
			<node id="203" bc="y"></node>
			<node id="204" bc="y"></node>
			<node id="205" bc="y"></node>
			<node id="206" bc="z"></node>
			<node id="211" bc="z"></node>
			<node id="216" bc="z"></node>
			<node id="221" bc="z"></node>
			<node id="226" bc="yz"></node>
			<node id="227" bc="y"></node>
			<node id="228" bc="y"></node>
			<node id="229" bc="y"></node>
			<node id="230" bc="y"></node>
			<node id="231" bc="z"></node>
			<node id="236" bc="z"></node>
			<node id="241" bc="z"></node>
			<node id="246" bc="z"></node>
			<node id="251" bc="yz"></node>
			<node id="252" bc="y"></node>
			<node id="253" bc="y"></node>
			<node id="254" bc="y"></node>
			<node id="255" bc="y"></node>
			<node id="256" bc="z"></node>
			<node id="261" bc="z"></node>
			<node id="266" bc="z"></node>
			<node id="271" bc="z"></node>
			<node id="276" bc="yz"></node>
			<node id="277" bc="y"></node>
			<node id="278" bc="y"></node>
			<node id="279" bc="y"></node>
			<node id="280" bc="y"></node>
			<node id="281" bc="z"></node>
			<node id="286" bc="z"></node>
			<node id="291" bc="z"></node>
			<node id="296" bc="z"></node>
			<node id="301" bc="yz"></node>
			<node id="302" bc="y"></node>
			<node id="303" bc="y"></node>
			<node id="304" bc="y"></node>
			<node id="305" bc="y"></node>
			<node id="306" bc="z"></node>
			<node id="311" bc="z"></node>
			<node id="316" bc="z"></node>
			<node id="321" bc="z"></node>
			<node id="326" bc="yz"></node>
			<node id="327" bc="y"></node>
			<node id="328" bc="y"></node>
			<node id="329" bc="y"></node>
			<node id="330" bc="y"></node>
			<node id="331" bc="z"></node>
			<node id="336" bc="z"></node>
			<node id="341" bc="z"></node>
			<node id="346" bc="z"></node>
			<node id="351" bc="yz"></node>
			<node id="352" bc="y"></node>
			<node id="353" bc="y"></node>
			<node id="354" bc="y"></node>
			<node id="355" bc="y"></node>
			<node id="356" bc="z"></node>
			<node id="361" bc="z"></node>
			<node id="366" bc="z"></node>
			<node id="371" bc="z"></node>
			<node id="376" bc="yz"></node>
			<node id="377" bc="y"></node>
			<node id="378" bc="y"></node>
			<node id="379" bc="y"></node>
			<node id="380" bc="y"></node>
			<node id="381" bc="z"></node>
			<node id="386" bc="z"></node>
			<node id="391" bc="z"></node>
			<node id="396" bc="z"></node>
			<node id="401" bc="yz"></node>
			<node id="402" bc="y"></node>
			<node id="403" bc="y"></node>
			<node id="404" bc="y"></node>
			<node id="405" bc="y"></node>
			<node id="406" bc="z"></node>
			<node id="411" bc="z"></node>
			<node id="416" bc="z"></node>
			<node id="421" bc="z"></node>
		</fix>
		<prescribe>
			<node id="401" bc="x" lc="1">1</node>
			<node id="402" bc="x" lc="1">1</node>
			<node id="403" bc="x" lc="1">1</node>
			<node id="404" bc="x" lc="1">1</node>
			<node id="405" bc="x" lc="1">1</node>
			<node id="406" bc="x" lc="1">1</node>
			<node id="407" bc="x" lc="1">1</node>
			<node id="408" bc="x" lc="1">1</node>
			<node id="409" bc="x" lc="1">1</node>
			<node id="410" bc="x" lc="1">1</node>
			<node id="411" bc="x" lc="1">1</node>
			<node id="412" bc="x" lc="1">1</node>
			<node id="413" bc="x" lc="1">1</node>
			<node id="414" bc="x" lc="1">1</node>
			<node id="415" bc="x" lc="1">1</node>
			<node id="416" bc="x" lc="1">1</node>
			<node id="417" bc="x" lc="1">1</node>
			<node id="418" bc="x" lc="1">1</node>
			<node id="419" bc="x" lc="1">1</node>
			<node id="420" bc="x" lc="1">1</node>
<!-- ... 5 like lines cut -->
		</prescribe>
	</Boundary>
	<LoadData>
		<loadcurve id="1">
			<loadpoint>0,0</loadpoint>
			<loadpoint>1,4</loadpoint>
		</loadcurve>
		<loadcurve id="2">
			<loadpoint>0,1</loadpoint>
			<loadpoint>1,1</loadpoint>
		</loadcurve>
	</LoadData>
</febio_spec>
