<?xml version="1.0" encoding="ISO-8859-1"?>
<!--
Problem Description:
	Cylinder with Referentially Isotropic Permeability material undergoes pressure change and twist.
Main Features:
	Biphasic
Secondary Features:
	
Materials:
	Referentially Isotropic Permeability
	neo-Hookean
Degrees of Freedom: 16095
Results:
	Steps Completed: 9
	Equilibrium Iterations: 59
	Right Hand Evaluations: 116
	Siffness Reformations: 60
	Other:
		
Comments:
	
-->
<febio_spec version="1.1">
	<Module type="poro"/>
	<Control>
		<time_steps>20</time_steps>
		<step_size>0.1</step_size>
		<max_refs>15</max_refs>
		<max_ups>0</max_ups>
		<dtol>0.001</dtol>
		<etol>0.01</etol>
		<rtol>0</rtol>
		<ptol>0.01</ptol>
		<lstol>0.9</lstol>
		<time_stepper>
			<dtmin>0.01</dtmin>
			<dtmax lc="1"></dtmax>
			<max_retries>5</max_retries>
			<opt_iter>10</opt_iter>
		</time_stepper>
		<analysis type="steady-state"/>
		<symmetric_biphasic>0</symmetric_biphasic>
	</Control>
	<Material>
		<material id="1" name="Biphasic Material" type="biphasic">
			<phi0>0.2</phi0>
			<solid type="neo-Hookean">
				<density>1</density>
				<E>1</E>
				<v>0</v>
			</solid>
			<permeability type="perm-ref-iso">
				<perm0>250</perm0>
				<perm1>50</perm1>
				<perm2>150</perm2>
				<M>0</M>
				<alpha>2</alpha>
			</permeability>
		</material>
		<material id="2" name="Rotating Face" type="rigid body">
			<density>1</density>
			<center_of_mass>0,0,25</center_of_mass>
		</material>
	</Material>
	<Geometry>
		<Nodes>
			<node id="1"> -1.7677670e+00, -1.7677670e+00,  0.0000000e+00</node>
			<node id="2">  0.0000000e+00, -1.7677670e+00,  0.0000000e+00</node>
			<node id="3">  1.7677670e+00, -1.7677670e+00,  0.0000000e+00</node>
			<node id="4"> -1.7677670e+00,  0.0000000e+00,  0.0000000e+00</node>
			<node id="5">  0.0000000e+00,  0.0000000e+00,  0.0000000e+00</node>
			<node id="6">  1.7677670e+00,  0.0000000e+00,  0.0000000e+00</node>
			<node id="7"> -1.7677670e+00,  1.7677670e+00,  0.0000000e+00</node>
			<node id="8">  0.0000000e+00,  1.7677670e+00,  0.0000000e+00</node>
			<node id="9">  1.7677670e+00,  1.7677670e+00,  0.0000000e+00</node>
			<node id="10"> -1.7677670e+00, -1.7677670e+00,  2.5000000e+01</node>
			<node id="11">  0.0000000e+00, -1.7677670e+00,  2.5000000e+01</node>
			<node id="12">  1.7677670e+00, -1.7677670e+00,  2.5000000e+01</node>
			<node id="13"> -1.7677670e+00,  0.0000000e+00,  2.5000000e+01</node>
			<node id="14">  0.0000000e+00,  0.0000000e+00,  2.5000000e+01</node>
			<node id="15">  1.7677670e+00,  0.0000000e+00,  2.5000000e+01</node>
			<node id="16"> -1.7677670e+00,  1.7677670e+00,  2.5000000e+01</node>
			<node id="17">  0.0000000e+00,  1.7677670e+00,  2.5000000e+01</node>
			<node id="18">  1.7677670e+00,  1.7677670e+00,  2.5000000e+01</node>
			<node id="19"> -3.5355339e+00, -3.5355339e+00,  0.0000000e+00</node>
			<node id="20">  0.0000000e+00, -5.0000000e+00,  0.0000000e+00</node>
<!-- ... 4369 like lines cut -->
		</Nodes>
		<Elements>
			<hex8 id="1" mat="1">     1,    35,   760,   131,    78,   526,  2338,   699</hex8>
			<hex8 id="2" mat="1">    35,    36,   761,   760,   526,   527,  2339,  2338</hex8>
			<hex8 id="3" mat="1">    36,    37,   762,   761,   527,   528,  2340,  2339</hex8>
			<hex8 id="4" mat="1">    37,     2,    79,   762,   528,    38,   583,  2340</hex8>
			<hex8 id="5" mat="1">   131,   760,   757,   130,   699,  2338,  2341,   698</hex8>
			<hex8 id="6" mat="1">   760,   761,   758,   757,  2338,  2339,  2342,  2341</hex8>
			<hex8 id="7" mat="1">   761,   762,   759,   758,  2339,  2340,  2343,  2342</hex8>
			<hex8 id="8" mat="1">   762,    79,    80,   759,  2340,   583,   584,  2343</hex8>
			<hex8 id="9" mat="1">   130,   757,   754,   129,   698,  2341,  2344,   697</hex8>
			<hex8 id="10" mat="1">   757,   758,   755,   754,  2341,  2342,  2345,  2344</hex8>
			<hex8 id="11" mat="1">   758,   759,   756,   755,  2342,  2343,  2346,  2345</hex8>
			<hex8 id="12" mat="1">   759,    80,    81,   756,  2343,   584,   585,  2346</hex8>
			<hex8 id="13" mat="1">   129,   754,   106,     4,   697,  2344,   642,   107</hex8>
			<hex8 id="14" mat="1">   754,   755,   105,   106,  2344,  2345,   641,   642</hex8>
			<hex8 id="15" mat="1">   755,   756,   104,   105,  2345,  2346,   640,   641</hex8>
			<hex8 id="16" mat="1">   756,    81,     5,   104,  2346,   585,    82,   640</hex8>
			<hex8 id="17" mat="1">    78,   526,  2338,   699,    77,   529,  2347,   702</hex8>
			<hex8 id="18" mat="1">   526,   527,  2339,  2338,   529,   530,  2348,  2347</hex8>
			<hex8 id="19" mat="1">   527,   528,  2340,  2339,   530,   531,  2349,  2348</hex8>
			<hex8 id="20" mat="1">   528,    38,   583,  2340,   531,    39,   586,  2349</hex8>
<!-- ... 3820 like lines cut -->
		</Elements>
	</Geometry>
	<Boundary>
		<fix>
			<node id="1" bc="xyz"/>
			<node id="2" bc="xyz"/>
			<node id="3" bc="xyz"/>
			<node id="4" bc="xyz"/>
			<node id="5" bc="xyz"/>
			<node id="6" bc="xyz"/>
			<node id="7" bc="xyz"/>
			<node id="8" bc="xyz"/>
			<node id="9" bc="xyz"/>
			<node id="19" bc="xyz"/>
			<node id="20" bc="xyz"/>
			<node id="21" bc="xyz"/>
			<node id="22" bc="xyz"/>
			<node id="23" bc="xyz"/>
			<node id="24" bc="xyz"/>
			<node id="25" bc="xyz"/>
			<node id="26" bc="xyz"/>
			<node id="35" bc="xyz"/>
			<node id="36" bc="xyz"/>
			<node id="37" bc="xyz"/>
<!-- ... 189 like lines cut -->
		</fix>
		<fix>
			<node id="10" bc="p"/>
			<node id="11" bc="p"/>
			<node id="12" bc="p"/>
			<node id="13" bc="p"/>
			<node id="14" bc="p"/>
			<node id="15" bc="p"/>
			<node id="16" bc="p"/>
			<node id="17" bc="p"/>
			<node id="18" bc="p"/>
			<node id="27" bc="p"/>
			<node id="28" bc="p"/>
			<node id="29" bc="p"/>
			<node id="30" bc="p"/>
			<node id="31" bc="p"/>
			<node id="32" bc="p"/>
			<node id="33" bc="p"/>
			<node id="34" bc="p"/>
			<node id="57" bc="p"/>
			<node id="58" bc="p"/>
			<node id="59" bc="p"/>
<!-- ... 189 like lines cut -->
		</fix>
		<prescribe>
			<node id="1" bc="p" lc="2">1</node>
			<node id="2" bc="p" lc="2">1</node>
			<node id="3" bc="p" lc="2">1</node>
			<node id="4" bc="p" lc="2">1</node>
			<node id="5" bc="p" lc="2">1</node>
			<node id="6" bc="p" lc="2">1</node>
			<node id="7" bc="p" lc="2">1</node>
			<node id="8" bc="p" lc="2">1</node>
			<node id="9" bc="p" lc="2">1</node>
			<node id="19" bc="p" lc="2">1</node>
			<node id="20" bc="p" lc="2">1</node>
			<node id="21" bc="p" lc="2">1</node>
			<node id="22" bc="p" lc="2">1</node>
			<node id="23" bc="p" lc="2">1</node>
			<node id="24" bc="p" lc="2">1</node>
			<node id="25" bc="p" lc="2">1</node>
			<node id="26" bc="p" lc="2">1</node>
			<node id="35" bc="p" lc="2">1</node>
			<node id="36" bc="p" lc="2">1</node>
			<node id="37" bc="p" lc="2">1</node>
<!-- ... 189 like lines cut -->
		</prescribe>
		<contact type="rigid">
			<node id="10" rb="2"></node>
			<node id="11" rb="2"></node>
			<node id="12" rb="2"></node>
			<node id="13" rb="2"></node>
			<node id="14" rb="2"></node>
			<node id="15" rb="2"></node>
			<node id="16" rb="2"></node>
			<node id="17" rb="2"></node>
			<node id="18" rb="2"></node>
			<node id="27" rb="2"></node>
			<node id="28" rb="2"></node>
			<node id="29" rb="2"></node>
			<node id="30" rb="2"></node>
			<node id="31" rb="2"></node>
			<node id="32" rb="2"></node>
			<node id="33" rb="2"></node>
			<node id="34" rb="2"></node>
			<node id="57" rb="2"></node>
			<node id="58" rb="2"></node>
			<node id="59" rb="2"></node>
<!-- ... 189 like lines cut -->
		</contact>
	</Boundary>
	<Constraints>
		<rigid_body mat="2">
			<trans_x type="fixed"></trans_x>
			<trans_y type="fixed"></trans_y>
			<rot_x type="fixed"></rot_x>
			<rot_y type="fixed"></rot_y>
		</rigid_body>
		<rigid_body mat="2">
			<rot_z type="prescribed" lc="3">1</rot_z>
		</rigid_body>
	</Constraints>
	<LoadData>
		<loadcurve id="1" type="step">
			<loadpoint>0,0</loadpoint>
			<loadpoint>1,1</loadpoint>
			<loadpoint>2,0.25</loadpoint>
		</loadcurve>
		<loadcurve id="2" type="smooth">
			<loadpoint>0,0</loadpoint>
			<loadpoint>1,0.1</loadpoint>
		</loadcurve>
		<loadcurve id="3" type="linear">
			<loadpoint>0,0</loadpoint>
			<loadpoint>1,0</loadpoint>
			<loadpoint>2,3.14159</loadpoint>
		</loadcurve>
	</LoadData>
	<Output>
		<plotfile type="febio">
			<var type="displacement"/>
			<var type="effective fluid pressure"/>
			<var type="fluid flux"/>
			<var type="relative volume"/>
			<var type="stress"/>
		</plotfile>
	</Output>
</febio_spec>
