<?xml version="1.0" encoding="ISO-8859-1"?>
<!--
Problem Description:
	Osmotic loading of spherical gel, using externally prescribed solute concentration.
	Units: length = mm, force = N, time = s, mole = nanomol; stress = MPa, concentration = mM.
Main Features:
	Biphasic with Solute
Secondary Features:
	
Materials:
	biphasic-solute
Degrees of Freedom: 6116
Results:
	Steps Completed: 86
	Equilibrium Iterations: 295
	Right Hand Evaluations: 387
	Siffness Reformations: 295
	Other:
		The weighted average of the relative volume has a minimum value of 0.715 at t=117.8s
Comments:
	
-->
<febio_spec version="1.1">
	<Module type="solute"/>
	<Control>
		<title>Spherical Gel - Osmotic Loading</title>
		<final_time>3600</final_time>
		<step_size>0.1</step_size>
		<max_refs>25</max_refs>
		<max_ups>0</max_ups>
		<dtol>0.001</dtol>
		<etol>0.01</etol>
		<rtol>0</rtol>
		<lstol>0.9</lstol>
		<symmetric_biphasic>0</symmetric_biphasic>
		<time_stepper>
			<dtmin>0.01</dtmin>
			<dtmax lc="1"></dtmax>
			<max_retries>5</max_retries>
			<opt_iter>20</opt_iter>
		</time_stepper>
	</Control>
	<Globals>
		<Constants>
			<R>8.314e-6</R>
			<T>298</T>
		</Constants>
	</Globals>
	<Material>
		<material id="1" name="Biphasic with solute" type="biphasic-solute">
		  <phi0>0.04</phi0>
		  <fluid_density>1</fluid_density>
		  <solid name="Solid Matrix" type="neo-Hookean">
			<density>1</density>
			<E>0.006</E>
			<v>0</v>
		  </solid>
		  <permeability name="Permeability" type="perm-Holmes-Mow">
			<perm>0.08</perm>
			<M>0</M>
			<alpha>0</alpha>
		  </permeability>
		  <diffusivity name="Diffusivity" type="diff-const-iso">
			<free_diff>3.9e-4</free_diff>
			<diff>2.75e-4</diff>
		  </diffusivity>
		  <solubility name="Solubility" type="solub-const">
			<solub>1.0</solub>
		  </solubility>
		  <osmotic_coefficient name="Osmotic Coefficient" type="osm-coef-const">
			<osmcoef>1.0</osmcoef>
		  </osmotic_coefficient>
		</material>
	</Material>
	<Geometry>
		<Nodes>
			<node id="1">  6.0000000e-04,  0.0000000e+00,  0.0000000e+00</node>
			<node id="2">  0.0000000e+00,  6.0000000e-04,  0.0000000e+00</node>
			<node id="3">  4.2426407e-04,  4.2426407e-04,  0.0000000e+00</node>
			<node id="4">  0.0000000e+00,  0.0000000e+00,  6.0000000e-04</node>
			<node id="5">  4.2426407e-04,  0.0000000e+00,  4.2426407e-04</node>
			<node id="6">  0.0000000e+00,  4.2426407e-04,  4.2426407e-04</node>
			<node id="7">  3.4641016e-04,  3.4641016e-04,  3.4641016e-04</node>
			<node id="8">  6.0000000e-01,  0.0000000e+00,  0.0000000e+00</node>
			<node id="9">  0.0000000e+00,  6.0000000e-01,  0.0000000e+00</node>
			<node id="10">  4.2426407e-01,  4.2426407e-01,  0.0000000e+00</node>
			<node id="11">  0.0000000e+00,  0.0000000e+00,  6.0000000e-01</node>
			<node id="12">  4.2426407e-01,  0.0000000e+00,  4.2426407e-01</node>
			<node id="13">  0.0000000e+00,  4.2426407e-01,  4.2426407e-01</node>
			<node id="14">  3.4641016e-01,  3.4641016e-01,  3.4641016e-01</node>
			<node id="15">  1.0457565e-01,  0.0000000e+00,  0.0000000e+00</node>
			<node id="16">  1.9087543e-01,  0.0000000e+00,  0.0000000e+00</node>
			<node id="17">  2.6250425e-01,  0.0000000e+00,  0.0000000e+00</node>
			<node id="18">  3.2195618e-01,  0.0000000e+00,  0.0000000e+00</node>
			<node id="19">  3.7130127e-01,  0.0000000e+00,  0.0000000e+00</node>
			<node id="20">  4.1225770e-01,  0.0000000e+00,  0.0000000e+00</node>
<!-- ... 1322 like lines cut -->
		</Nodes>
		<Elements>
			<hex8 id="1" mat="1">     1,    15,   209,    58,    64,   288,   803,   400</hex8>
			<hex8 id="2" mat="1">    15,    16,   210,   209,   288,   287,   804,   803</hex8>
			<hex8 id="3" mat="1">    16,    17,   211,   210,   287,   286,   805,   804</hex8>
			<hex8 id="4" mat="1">    17,    18,   212,   211,   286,   285,   806,   805</hex8>
			<hex8 id="5" mat="1">    18,    19,   213,   212,   285,   284,   807,   806</hex8>
			<hex8 id="6" mat="1">    19,    20,   214,   213,   284,   283,   808,   807</hex8>
			<hex8 id="7" mat="1">    20,    21,   215,   214,   283,   282,   809,   808</hex8>
			<hex8 id="8" mat="1">    21,    22,   216,   215,   282,   281,   810,   809</hex8>
			<hex8 id="9" mat="1">    22,    23,   217,   216,   281,   280,   811,   810</hex8>
			<hex8 id="10" mat="1">    23,    24,   218,   217,   280,   279,   812,   811</hex8>
			<hex8 id="11" mat="1">    24,    25,   219,   218,   279,   278,   813,   812</hex8>
			<hex8 id="12" mat="1">    25,    26,   220,   219,   278,   277,   814,   813</hex8>
			<hex8 id="13" mat="1">    26,    27,   221,   220,   277,   276,   815,   814</hex8>
			<hex8 id="14" mat="1">    27,    28,   222,   221,   276,   275,   816,   815</hex8>
			<hex8 id="15" mat="1">    28,    29,   223,   222,   275,   274,   817,   816</hex8>
			<hex8 id="16" mat="1">    29,    30,   224,   223,   274,   273,   818,   817</hex8>
			<hex8 id="17" mat="1">    30,    31,   225,   224,   273,   272,   819,   818</hex8>
			<hex8 id="18" mat="1">    31,    32,   226,   225,   272,   271,   820,   819</hex8>
			<hex8 id="19" mat="1">    32,    33,   227,   226,   271,   270,   821,   820</hex8>
			<hex8 id="20" mat="1">    33,    34,   228,   227,   270,   269,   822,   821</hex8>
<!-- ... 988 like lines cut -->
		</Elements>
	</Geometry>
	<Boundary>
		<fix>
			<node id="2" bc="x"/>
			<node id="4" bc="x"/>
			<node id="6" bc="x"/>
			<node id="9" bc="x"/>
			<node id="11" bc="x"/>
			<node id="13" bc="x"/>
			<node id="122" bc="x"/>
			<node id="123" bc="x"/>
			<node id="124" bc="x"/>
			<node id="125" bc="x"/>
			<node id="126" bc="x"/>
			<node id="127" bc="x"/>
			<node id="128" bc="x"/>
			<node id="129" bc="x"/>
			<node id="130" bc="x"/>
			<node id="131" bc="x"/>
			<node id="132" bc="x"/>
			<node id="133" bc="x"/>
			<node id="134" bc="x"/>
			<node id="135" bc="x"/>
<!-- ... 178 like lines cut -->
		</fix>
		<fix>
			<node id="1" bc="y"/>
			<node id="4" bc="y"/>
			<node id="5" bc="y"/>
			<node id="8" bc="y"/>
			<node id="11" bc="y"/>
			<node id="12" bc="y"/>
			<node id="15" bc="y"/>
			<node id="16" bc="y"/>
			<node id="17" bc="y"/>
			<node id="18" bc="y"/>
			<node id="19" bc="y"/>
			<node id="20" bc="y"/>
			<node id="21" bc="y"/>
			<node id="22" bc="y"/>
			<node id="23" bc="y"/>
			<node id="24" bc="y"/>
			<node id="25" bc="y"/>
			<node id="26" bc="y"/>
			<node id="27" bc="y"/>
			<node id="28" bc="y"/>
<!-- ... 178 like lines cut -->
		</fix>
		<fix>
			<node id="1" bc="z"/>
			<node id="2" bc="z"/>
			<node id="3" bc="z"/>
			<node id="8" bc="z"/>
			<node id="9" bc="z"/>
			<node id="10" bc="z"/>
			<node id="15" bc="z"/>
			<node id="16" bc="z"/>
			<node id="17" bc="z"/>
			<node id="18" bc="z"/>
			<node id="19" bc="z"/>
			<node id="20" bc="z"/>
			<node id="21" bc="z"/>
			<node id="22" bc="z"/>
			<node id="23" bc="z"/>
			<node id="24" bc="z"/>
			<node id="25" bc="z"/>
			<node id="26" bc="z"/>
			<node id="27" bc="z"/>
			<node id="28" bc="z"/>
<!-- ... 178 like lines cut -->
		</fix>
		<prescribe>
			<node id="8" bc="p" lc="2">-2.47757e-3</node>
			<node id="9" bc="p" lc="2">-2.47757e-3</node>
			<node id="10" bc="p" lc="2">-2.47757e-3</node>
			<node id="11" bc="p" lc="2">-2.47757e-3</node>
			<node id="12" bc="p" lc="2">-2.47757e-3</node>
			<node id="13" bc="p" lc="2">-2.47757e-3</node>
			<node id="14" bc="p" lc="2">-2.47757e-3</node>
			<node id="35" bc="p" lc="2">-2.47757e-3</node>
			<node id="36" bc="p" lc="2">-2.47757e-3</node>
			<node id="37" bc="p" lc="2">-2.47757e-3</node>
			<node id="61" bc="p" lc="2">-2.47757e-3</node>
			<node id="62" bc="p" lc="2">-2.47757e-3</node>
			<node id="63" bc="p" lc="2">-2.47757e-3</node>
			<node id="87" bc="p" lc="2">-2.47757e-3</node>
			<node id="88" bc="p" lc="2">-2.47757e-3</node>
			<node id="89" bc="p" lc="2">-2.47757e-3</node>
			<node id="90" bc="p" lc="2">-2.47757e-3</node>
			<node id="91" bc="p" lc="2">-2.47757e-3</node>
			<node id="92" bc="p" lc="2">-2.47757e-3</node>
			<node id="119" bc="p" lc="2">-2.47757e-3</node>
<!-- ... 41 like lines cut -->
		</prescribe>
		<prescribe>
			<node id="8" bc="c" lc="2">1</node>
			<node id="9" bc="c" lc="2">1</node>
			<node id="10" bc="c" lc="2">1</node>
			<node id="11" bc="c" lc="2">1</node>
			<node id="12" bc="c" lc="2">1</node>
			<node id="13" bc="c" lc="2">1</node>
			<node id="14" bc="c" lc="2">1</node>
			<node id="35" bc="c" lc="2">1</node>
			<node id="36" bc="c" lc="2">1</node>
			<node id="37" bc="c" lc="2">1</node>
			<node id="61" bc="c" lc="2">1</node>
			<node id="62" bc="c" lc="2">1</node>
			<node id="63" bc="c" lc="2">1</node>
			<node id="87" bc="c" lc="2">1</node>
			<node id="88" bc="c" lc="2">1</node>
			<node id="89" bc="c" lc="2">1</node>
			<node id="90" bc="c" lc="2">1</node>
			<node id="91" bc="c" lc="2">1</node>
			<node id="92" bc="c" lc="2">1</node>
			<node id="119" bc="c" lc="2">1</node>
<!-- ... 41 like lines cut -->
		</prescribe>
	</Boundary>
	<LoadData>
		<loadcurve id="1" type="linear" extend="extrapolate">
			<loadpoint>0,0</loadpoint>
			<loadpoint>1,0.2</loadpoint>
		</loadcurve>
		<loadcurve id="2" type="linear" extend="constant">
			<loadpoint>0,0</loadpoint>
			<loadpoint>1,6</loadpoint>
		</loadcurve>
	</LoadData>
	<Output>
	  	<plotfile type="febio">
		  <var type="displacement"/>
		  <var type="stress"/>
		  <var type="relative volume"/>
		  <var type="effective fluid pressure"/>
		  <var type="fluid pressure"/>
		  <var type="fluid flux"/>
		  <var type="effective solute concentration"/>
		  <var type="solute concentration"/>
		  <var type="solute flux"/>
		</plotfile>
	</Output>
</febio_spec>
