<?xml version="1.0" encoding="ISO-8859-1"?>
<!--
Problem Description:
	Five links in a chain with contact between them are stretched in the x-direction.
Main Features:
	Facet to facet contact
Secondary Features:
	
Materials:
	Holmes-Mow
Degrees of Freedom: 50332
Results:
	Solver: Pardiso
	Steps Completed: 50
	Equilibrium Iterations: 217
	Right Hand Evaluations: 337
	Siffness Reformations: 52
	Other:
		The center link has a maximum z-displacement of -0.385 (node 11420)
		at time t=2.5.
 
Comments:
	
-->
<febio_spec version="2.0">
	<Module type="solid"/>
	<Control>
		<title>Stretched Links</title>
		<time_steps>50</time_steps>
		<step_size>0.05</step_size>
		<max_refs>15</max_refs>
		<max_ups>10</max_ups>
		<dtol>0.001</dtol>
		<etol>0.01</etol>
		<rtol>0</rtol>
		<lstol>0.9</lstol>
		<time_stepper>
			<dtmin>0.01</dtmin>
			<dtmax>0.05</dtmax>
			<max_retries>5</max_retries>
			<opt_iter>50</opt_iter>
		</time_stepper>
		<analysis type="static"/>
		<pressure_stiffness>1</pressure_stiffness>
		<plot_level>PLOT_DEFAULT</plot_level>
		<optimize_bw>1</optimize_bw>
	</Control>
	<Globals>
		<Constants>
			<T>0</T>
			<R>0</R>
			<Fc>0</Fc>
		</Constants>
	</Globals>
	<Material>
		<material id="1" name="Material 1" type="neo-Hookean">
			<density>1</density>
			<E>1</E>
			<v>0.45</v>
		</material>
	</Material>
	<Geometry>
		<Nodes>
			<node id="1">-2.2000000e+000,-1.7292767e+000, 4.8607233e+000</node>
			<node id="2">-2.2000000e+000,-1.7371303e+000, 4.9264348e+000</node>
			<node id="3">-2.2000000e+000,-1.7402602e+000, 5.0000000e+000</node>
			<node id="4">-2.2000000e+000,-1.7371303e+000, 5.0735652e+000</node>
			<node id="5">-2.2000000e+000,-1.7292767e+000, 5.1392767e+000</node>
			<node id="6">-2.2000000e+000,-1.6635652e+000, 4.8528697e+000</node>
			<node id="7">-2.2000000e+000,-1.6690133e+000, 4.9209867e+000</node>
			<node id="8">-2.2000000e+000,-1.6717592e+000, 5.0000000e+000</node>
			<node id="9">-2.2000000e+000,-1.6690133e+000, 5.0790133e+000</node>
			<node id="10">-2.2000000e+000,-1.6635652e+000, 5.1471303e+000</node>
			<node id="11">-2.2000000e+000,-1.5900000e+000, 4.8497398e+000</node>
			<node id="12">-2.2000000e+000,-1.5900000e+000, 4.9182408e+000</node>
			<node id="13">-2.2000000e+000,-1.5900000e+000, 5.0000000e+000</node>
			<node id="14">-2.2000000e+000,-1.5900000e+000, 5.0817592e+000</node>
			<node id="15">-2.2000000e+000,-1.5900000e+000, 5.1502602e+000</node>
			<node id="16">-2.2000000e+000,-1.5164348e+000, 4.8528697e+000</node>
			<node id="17">-2.2000000e+000,-1.5109867e+000, 4.9209867e+000</node>
			<node id="18">-2.2000000e+000,-1.5082408e+000, 5.0000000e+000</node>
			<node id="19">-2.2000000e+000,-1.5109867e+000, 5.0790133e+000</node>
			<node id="20">-2.2000000e+000,-1.5164348e+000, 5.1471303e+000</node>
<!-- ... 16974 like lines cut -->
		</Nodes>
		<Elements type="hex8" mat="1" elset="Part1">
			<elem id="1">     1,     6,     7,     2,    90,    95,    96,    91</elem>
			<elem id="2">     6,    11,    12,     7,    95,   100,   101,    96</elem>
			<elem id="3">    11,    16,    17,    12,   100,   105,   106,   101</elem>
			<elem id="4">    16,    21,    22,    17,   105,   110,   111,   106</elem>
			<elem id="5">     2,     7,     8,     3,    91,    96,    97,    92</elem>
			<elem id="6">     7,    12,    13,     8,    96,   101,   102,    97</elem>
			<elem id="7">    12,    17,    18,    13,   101,   106,   107,   102</elem>
			<elem id="8">    17,    22,    23,    18,   106,   111,   112,   107</elem>
			<elem id="9">     3,     8,     9,     4,    92,    97,    98,    93</elem>
			<elem id="10">     8,    13,    14,     9,    97,   102,   103,    98</elem>
			<elem id="11">    13,    18,    19,    14,   102,   107,   108,   103</elem>
			<elem id="12">    18,    23,    24,    19,   107,   112,   113,   108</elem>
			<elem id="13">     4,     9,    10,     5,    93,    98,    99,    94</elem>
			<elem id="14">     9,    14,    15,    10,    98,   103,   104,    99</elem>
			<elem id="15">    14,    19,    20,    15,   103,   108,   109,   104</elem>
			<elem id="16">    19,    24,    25,    20,   108,   113,   114,   109</elem>
			<elem id="17">     4,    26,    27,     3,    93,   115,   116,    92</elem>
			<elem id="18">     3,    27,    28,     2,    92,   116,   117,    91</elem>
			<elem id="19">     2,    28,    29,     1,    91,   117,   118,    90</elem>
			<elem id="20">     1,    29,    30,     6,    90,   118,   119,    95</elem>
<!-- ... 13804 like lines cut -->
		</Elements>
		<Elements type="penta6" mat="1" elset="Part1">
			<elem id="13825">  5697,  5698,  5699,  5762,  5763,  5764</elem>
			<elem id="13826">  5697,  5699,  5700,  5762,  5764,  5765</elem>
			<elem id="13827">  5697,  5700,  5701,  5762,  5765,  5766</elem>
			<elem id="13828">  5697,  5701,  5702,  5762,  5766,  5767</elem>
			<elem id="13829">  5697,  5702,  5703,  5762,  5767,  5768</elem>
			<elem id="13830">  5697,  5703,  5704,  5762,  5768,  5769</elem>
			<elem id="13831">  5697,  5704,  5705,  5762,  5769,  5770</elem>
			<elem id="13832">  5697,  5705,  5706,  5762,  5770,  5771</elem>
			<elem id="13833">  5697,  5706,  5707,  5762,  5771,  5772</elem>
			<elem id="13834">  5697,  5707,  5708,  5762,  5772,  5773</elem>
			<elem id="13835">  5697,  5708,  5709,  5762,  5773,  5774</elem>
			<elem id="13836">  5697,  5709,  5710,  5762,  5774,  5775</elem>
			<elem id="13837">  5697,  5710,  5711,  5762,  5775,  5776</elem>
			<elem id="13838">  5697,  5711,  5712,  5762,  5776,  5777</elem>
			<elem id="13839">  5697,  5712,  5713,  5762,  5777,  5778</elem>
			<elem id="13840">  5697,  5713,  5698,  5762,  5778,  5763</elem>
			<elem id="13841">  5762,  5763,  5764,  5827,  5828,  5829</elem>
			<elem id="13842">  5762,  5764,  5765,  5827,  5829,  5830</elem>
			<elem id="13843">  5762,  5765,  5766,  5827,  5830,  5831</elem>
			<elem id="13844">  5762,  5766,  5767,  5827,  5831,  5832</elem>
<!-- ... 2028 like lines cut -->
		</Elements>
		<NodeSet name="FixedNodeset01">
			<node id="12770"/>
			<node id="12771"/>
			<node id="12772"/>
			<node id="12773"/>
			<node id="12774"/>
			<node id="12775"/>
			<node id="12776"/>
			<node id="12777"/>
			<node id="12778"/>
			<node id="12779"/>
			<node id="12780"/>
			<node id="12781"/>
			<node id="12782"/>
			<node id="12783"/>
			<node id="12784"/>
			<node id="12785"/>
			<node id="12786"/>
			<node id="12787"/>
			<node id="12788"/>
			<node id="12789"/>
<!-- ... 110 like lines cut -->
		</NodeSet>
		<NodeSet name="FixedNodeset02">
			<node id="12770"/>
			<node id="12771"/>
			<node id="12772"/>
			<node id="12773"/>
			<node id="12774"/>
			<node id="12775"/>
			<node id="12776"/>
			<node id="12777"/>
			<node id="12778"/>
			<node id="12779"/>
			<node id="12780"/>
			<node id="12781"/>
			<node id="12782"/>
			<node id="12783"/>
			<node id="12784"/>
			<node id="12785"/>
			<node id="12786"/>
			<node id="12787"/>
			<node id="12788"/>
			<node id="12789"/>
<!-- ... 110 like lines cut -->
		</NodeSet>
		<NodeSet name="FixedNodeset03">
			<node id="12770"/>
			<node id="12771"/>
			<node id="12772"/>
			<node id="12773"/>
			<node id="12774"/>
			<node id="12775"/>
			<node id="12776"/>
			<node id="12777"/>
			<node id="12778"/>
			<node id="12779"/>
			<node id="12780"/>
			<node id="12781"/>
			<node id="12782"/>
			<node id="12783"/>
			<node id="12784"/>
			<node id="12785"/>
			<node id="12786"/>
			<node id="12787"/>
			<node id="12788"/>
			<node id="12789"/>
<!-- ... 110 like lines cut -->
		</NodeSet>
		<NodeSet name="FixedNodeset04">
			<node id="5697"/>
			<node id="5698"/>
			<node id="5699"/>
			<node id="5700"/>
			<node id="5701"/>
			<node id="5702"/>
			<node id="5703"/>
			<node id="5704"/>
			<node id="5705"/>
			<node id="5706"/>
			<node id="5707"/>
			<node id="5708"/>
			<node id="5709"/>
			<node id="5710"/>
			<node id="5711"/>
			<node id="5712"/>
			<node id="5713"/>
			<node id="5714"/>
			<node id="5715"/>
			<node id="5716"/>
<!-- ... 110 like lines cut -->
		</NodeSet>
		<NodeSet name="FixedNodeset05">
			<node id="5697"/>
			<node id="5698"/>
			<node id="5699"/>
			<node id="5700"/>
			<node id="5701"/>
			<node id="5702"/>
			<node id="5703"/>
			<node id="5704"/>
			<node id="5705"/>
			<node id="5706"/>
			<node id="5707"/>
			<node id="5708"/>
			<node id="5709"/>
			<node id="5710"/>
			<node id="5711"/>
			<node id="5712"/>
			<node id="5713"/>
			<node id="5714"/>
			<node id="5715"/>
			<node id="5716"/>
<!-- ... 110 like lines cut -->
		</NodeSet>
		<NodeSet name="Nodeset01">
			<node id="5697"/>
			<node id="5698"/>
			<node id="5699"/>
			<node id="5700"/>
			<node id="5701"/>
			<node id="5702"/>
			<node id="5703"/>
			<node id="5704"/>
			<node id="5705"/>
			<node id="5706"/>
			<node id="5707"/>
			<node id="5708"/>
			<node id="5709"/>
			<node id="5710"/>
			<node id="5711"/>
			<node id="5712"/>
			<node id="5713"/>
			<node id="5714"/>
			<node id="5715"/>
			<node id="5716"/>
<!-- ... 110 like lines cut -->
		</NodeSet>
		<Surface name="MasterSurface01">
			<quad4 id="1">  1503,  1504,  1593,  1592</quad4>
			<quad4 id="2">  1504,  1505,  1594,  1593</quad4>
			<quad4 id="3">  1505,  1506,  1595,  1594</quad4>
			<quad4 id="4">  1506,  1507,  1596,  1595</quad4>
			<quad4 id="5">  1592,  1593,  1682,  1681</quad4>
			<quad4 id="6">  1593,  1594,  1683,  1682</quad4>
			<quad4 id="7">  1594,  1595,  1684,  1683</quad4>
			<quad4 id="8">  1595,  1596,  1685,  1684</quad4>
			<quad4 id="9">  1681,  1682,  1771,  1770</quad4>
			<quad4 id="10">  1682,  1683,  1772,  1771</quad4>
			<quad4 id="11">  1683,  1684,  1773,  1772</quad4>
			<quad4 id="12">  1684,  1685,  1774,  1773</quad4>
			<quad4 id="13">  1770,  1771,  1860,  1859</quad4>
			<quad4 id="14">  1771,  1772,  1861,  1860</quad4>
			<quad4 id="15">  1772,  1773,  1862,  1861</quad4>
			<quad4 id="16">  1773,  1774,  1863,  1862</quad4>
			<quad4 id="17">  1859,  1860,  1949,  1948</quad4>
			<quad4 id="18">  1860,  1861,  1950,  1949</quad4>
			<quad4 id="19">  1861,  1862,  1951,  1950</quad4>
			<quad4 id="20">  1862,  1863,  1952,  1951</quad4>
<!-- ... 108 like lines cut -->
		</Surface>
		<Surface name="SlaveSurface01">
			<quad4 id="1"> 12823, 12824, 12889, 12888</quad4>
			<quad4 id="2"> 12824, 12825, 12890, 12889</quad4>
			<quad4 id="3"> 12825, 12826, 12891, 12890</quad4>
			<quad4 id="4"> 12826, 12827, 12892, 12891</quad4>
			<quad4 id="5"> 12888, 12889, 12954, 12953</quad4>
			<quad4 id="6"> 12889, 12890, 12955, 12954</quad4>
			<quad4 id="7"> 12890, 12891, 12956, 12955</quad4>
			<quad4 id="8"> 12891, 12892, 12957, 12956</quad4>
			<quad4 id="9"> 12953, 12954, 13019, 13018</quad4>
			<quad4 id="10"> 12954, 12955, 13020, 13019</quad4>
			<quad4 id="11"> 12955, 12956, 13021, 13020</quad4>
			<quad4 id="12"> 12956, 12957, 13022, 13021</quad4>
			<quad4 id="13"> 13018, 13019, 13084, 13083</quad4>
			<quad4 id="14"> 13019, 13020, 13085, 13084</quad4>
			<quad4 id="15"> 13020, 13021, 13086, 13085</quad4>
			<quad4 id="16"> 13021, 13022, 13087, 13086</quad4>
			<quad4 id="17"> 13083, 13084, 13149, 13148</quad4>
			<quad4 id="18"> 13084, 13085, 13150, 13149</quad4>
			<quad4 id="19"> 13085, 13086, 13151, 13150</quad4>
			<quad4 id="20"> 13086, 13087, 13152, 13151</quad4>
<!-- ... 492 like lines cut -->
		</Surface>
		<Surface name="MasterSurface02">
			<quad4 id="1"> 11424, 11425, 11514, 11513</quad4>
			<quad4 id="2"> 11425, 11426, 11515, 11514</quad4>
			<quad4 id="3"> 11426, 11427, 11516, 11515</quad4>
			<quad4 id="4"> 11427, 11428, 11517, 11516</quad4>
			<quad4 id="5"> 11513, 11514, 11603, 11602</quad4>
			<quad4 id="6"> 11514, 11515, 11604, 11603</quad4>
			<quad4 id="7"> 11515, 11516, 11605, 11604</quad4>
			<quad4 id="8"> 11516, 11517, 11606, 11605</quad4>
			<quad4 id="9"> 11602, 11603, 11692, 11691</quad4>
			<quad4 id="10"> 11603, 11604, 11693, 11692</quad4>
			<quad4 id="11"> 11604, 11605, 11694, 11693</quad4>
			<quad4 id="12"> 11605, 11606, 11695, 11694</quad4>
			<quad4 id="13"> 11691, 11692, 11781, 11780</quad4>
			<quad4 id="14"> 11692, 11693, 11782, 11781</quad4>
			<quad4 id="15"> 11693, 11694, 11783, 11782</quad4>
			<quad4 id="16"> 11694, 11695, 11784, 11783</quad4>
			<quad4 id="17"> 11780, 11781, 11870, 11869</quad4>
			<quad4 id="18"> 11781, 11782, 11871, 11870</quad4>
			<quad4 id="19"> 11782, 11783, 11872, 11871</quad4>
			<quad4 id="20"> 11783, 11784, 11873, 11872</quad4>
<!-- ... 108 like lines cut -->
		</Surface>
		<Surface name="SlaveSurface02">
			<quad4 id="1">    79,    80,   169,   168</quad4>
			<quad4 id="2">    80,    81,   170,   169</quad4>
			<quad4 id="3">    81,    82,   171,   170</quad4>
			<quad4 id="4">    82,    83,   172,   171</quad4>
			<quad4 id="5">   168,   169,   258,   257</quad4>
			<quad4 id="6">   169,   170,   259,   258</quad4>
			<quad4 id="7">   170,   171,   260,   259</quad4>
			<quad4 id="8">   171,   172,   261,   260</quad4>
			<quad4 id="9">   257,   258,   347,   346</quad4>
			<quad4 id="10">   258,   259,   348,   347</quad4>
			<quad4 id="11">   259,   260,   349,   348</quad4>
			<quad4 id="12">   260,   261,   350,   349</quad4>
			<quad4 id="13">   346,   347,   436,   435</quad4>
			<quad4 id="14">   347,   348,   437,   436</quad4>
			<quad4 id="15">   348,   349,   438,   437</quad4>
			<quad4 id="16">   349,   350,   439,   438</quad4>
			<quad4 id="17">   435,   436,   525,   524</quad4>
			<quad4 id="18">   436,   437,   526,   525</quad4>
			<quad4 id="19">   437,   438,   527,   526</quad4>
			<quad4 id="20">   438,   439,   528,   527</quad4>
<!-- ... 108 like lines cut -->
		</Surface>
		<Surface name="MasterSurface03">
			<quad4 id="1">  4351,  4352,  4441,  4440</quad4>
			<quad4 id="2">  4352,  4353,  4442,  4441</quad4>
			<quad4 id="3">  4353,  4354,  4443,  4442</quad4>
			<quad4 id="4">  4354,  4355,  4444,  4443</quad4>
			<quad4 id="5">  4440,  4441,  4530,  4529</quad4>
			<quad4 id="6">  4441,  4442,  4531,  4530</quad4>
			<quad4 id="7">  4442,  4443,  4532,  4531</quad4>
			<quad4 id="8">  4443,  4444,  4533,  4532</quad4>
			<quad4 id="9">  4529,  4530,  4619,  4618</quad4>
			<quad4 id="10">  4530,  4531,  4620,  4619</quad4>
			<quad4 id="11">  4531,  4532,  4621,  4620</quad4>
			<quad4 id="12">  4532,  4533,  4622,  4621</quad4>
			<quad4 id="13">  4618,  4619,  4708,  4707</quad4>
			<quad4 id="14">  4619,  4620,  4709,  4708</quad4>
			<quad4 id="15">  4620,  4621,  4710,  4709</quad4>
			<quad4 id="16">  4621,  4622,  4711,  4710</quad4>
			<quad4 id="17">  4707,  4708,  4797,  4796</quad4>
			<quad4 id="18">  4708,  4709,  4798,  4797</quad4>
			<quad4 id="19">  4709,  4710,  4799,  4798</quad4>
			<quad4 id="20">  4710,  4711,  4800,  4799</quad4>
<!-- ... 108 like lines cut -->
		</Surface>
		<Surface name="SlaveSurface03">
			<quad4 id="1"> 10000, 10001, 10090, 10089</quad4>
			<quad4 id="2"> 10001, 10002, 10091, 10090</quad4>
			<quad4 id="3"> 10002, 10003, 10092, 10091</quad4>
			<quad4 id="4"> 10003, 10004, 10093, 10092</quad4>
			<quad4 id="5"> 10089, 10090, 10179, 10178</quad4>
			<quad4 id="6"> 10090, 10091, 10180, 10179</quad4>
			<quad4 id="7"> 10091, 10092, 10181, 10180</quad4>
			<quad4 id="8"> 10092, 10093, 10182, 10181</quad4>
			<quad4 id="9"> 10178, 10179, 10268, 10267</quad4>
			<quad4 id="10"> 10179, 10180, 10269, 10268</quad4>
			<quad4 id="11"> 10180, 10181, 10270, 10269</quad4>
			<quad4 id="12"> 10181, 10182, 10271, 10270</quad4>
			<quad4 id="13"> 10267, 10268, 10357, 10356</quad4>
			<quad4 id="14"> 10268, 10269, 10358, 10357</quad4>
			<quad4 id="15"> 10269, 10270, 10359, 10358</quad4>
			<quad4 id="16"> 10270, 10271, 10360, 10359</quad4>
			<quad4 id="17"> 10356, 10357, 10446, 10445</quad4>
			<quad4 id="18"> 10357, 10358, 10447, 10446</quad4>
			<quad4 id="19"> 10358, 10359, 10448, 10447</quad4>
			<quad4 id="20"> 10359, 10360, 10449, 10448</quad4>
<!-- ... 108 like lines cut -->
		</Surface>
		<Surface name="MasterSurface04">
			<quad4 id="1">  5746,  5747,  5812,  5811</quad4>
			<quad4 id="2">  5747,  5748,  5813,  5812</quad4>
			<quad4 id="3">  5748,  5749,  5814,  5813</quad4>
			<quad4 id="4">  5749,  5750,  5815,  5814</quad4>
			<quad4 id="5">  5811,  5812,  5877,  5876</quad4>
			<quad4 id="6">  5812,  5813,  5878,  5877</quad4>
			<quad4 id="7">  5813,  5814,  5879,  5878</quad4>
			<quad4 id="8">  5814,  5815,  5880,  5879</quad4>
			<quad4 id="9">  5876,  5877,  5942,  5941</quad4>
			<quad4 id="10">  5877,  5878,  5943,  5942</quad4>
			<quad4 id="11">  5878,  5879,  5944,  5943</quad4>
			<quad4 id="12">  5879,  5880,  5945,  5944</quad4>
			<quad4 id="13">  5941,  5942,  6007,  6006</quad4>
			<quad4 id="14">  5942,  5943,  6008,  6007</quad4>
			<quad4 id="15">  5943,  5944,  6009,  6008</quad4>
			<quad4 id="16">  5944,  5945,  6010,  6009</quad4>
			<quad4 id="17">  6006,  6007,  6072,  6071</quad4>
			<quad4 id="18">  6007,  6008,  6073,  6072</quad4>
			<quad4 id="19">  6008,  6009,  6074,  6073</quad4>
			<quad4 id="20">  6009,  6010,  6075,  6074</quad4>
<!-- ... 492 like lines cut -->
		</Surface>
		<Surface name="SlaveSurface04">
			<quad4 id="1">  2927,  2928,  3017,  3016</quad4>
			<quad4 id="2">  2928,  2929,  3018,  3017</quad4>
			<quad4 id="3">  2929,  2930,  3019,  3018</quad4>
			<quad4 id="4">  2930,  2931,  3020,  3019</quad4>
			<quad4 id="5">  3016,  3017,  3106,  3105</quad4>
			<quad4 id="6">  3017,  3018,  3107,  3106</quad4>
			<quad4 id="7">  3018,  3019,  3108,  3107</quad4>
			<quad4 id="8">  3019,  3020,  3109,  3108</quad4>
			<quad4 id="9">  3105,  3106,  3195,  3194</quad4>
			<quad4 id="10">  3106,  3107,  3196,  3195</quad4>
			<quad4 id="11">  3107,  3108,  3197,  3196</quad4>
			<quad4 id="12">  3108,  3109,  3198,  3197</quad4>
			<quad4 id="13">  3194,  3195,  3284,  3283</quad4>
			<quad4 id="14">  3195,  3196,  3285,  3284</quad4>
			<quad4 id="15">  3196,  3197,  3286,  3285</quad4>
			<quad4 id="16">  3197,  3198,  3287,  3286</quad4>
			<quad4 id="17">  3283,  3284,  3373,  3372</quad4>
			<quad4 id="18">  3284,  3285,  3374,  3373</quad4>
			<quad4 id="19">  3285,  3286,  3375,  3374</quad4>
			<quad4 id="20">  3286,  3287,  3376,  3375</quad4>
<!-- ... 108 like lines cut -->
		</Surface>
	</Geometry>
	<Boundary>
		<fix bc="z" set="FixedNodeset01"/>
		<fix bc="y" set="FixedNodeset02"/>
		<fix bc="x" set="FixedNodeset03"/>
		<fix bc="z" set="FixedNodeset04"/>
		<fix bc="y" set="FixedNodeset05"/>
		<prescribe bc="x" lc="1" set="Nodeset01">1</prescribe>
	</Boundary>
	<Contact>
		<contact type="facet-to-facet sliding" name="SlidingInterface01">
			<laugon>0</laugon>
			<tolerance>0.2</tolerance>
			<penalty>1</penalty>
			<two_pass>1</two_pass>
			<auto_penalty>1</auto_penalty>
			<fric_coeff>0</fric_coeff>
			<fric_penalty>0</fric_penalty>
			<search_tol>0.01</search_tol>
			<minaug>0</minaug>
			<maxaug>10</maxaug>
			<gaptol>0</gaptol>
			<seg_up>0</seg_up>
			<surface type="master" set="MasterSurface01"/>
			<surface type="slave" set="SlaveSurface01"/>
		</contact>
		<contact type="facet-to-facet sliding" name="SlidingInterface02">
			<laugon>0</laugon>
			<tolerance>0.2</tolerance>
			<penalty>1</penalty>
			<two_pass>1</two_pass>
			<auto_penalty>1</auto_penalty>
			<fric_coeff>0</fric_coeff>
			<fric_penalty>0</fric_penalty>
			<search_tol>0.01</search_tol>
			<minaug>0</minaug>
			<maxaug>10</maxaug>
			<gaptol>0</gaptol>
			<seg_up>0</seg_up>
			<surface type="master" set="MasterSurface02"/>
			<surface type="slave" set="SlaveSurface02"/>
		</contact>
		<contact type="facet-to-facet sliding" name="SlidingInterface03">
			<laugon>0</laugon>
			<tolerance>0.2</tolerance>
			<penalty>1</penalty>
			<two_pass>1</two_pass>
			<auto_penalty>1</auto_penalty>
			<fric_coeff>0</fric_coeff>
			<fric_penalty>0</fric_penalty>
			<search_tol>0.01</search_tol>
			<minaug>0</minaug>
			<maxaug>10</maxaug>
			<gaptol>0</gaptol>
			<seg_up>0</seg_up>
			<surface type="master" set="MasterSurface03"/>
			<surface type="slave" set="SlaveSurface03"/>
		</contact>
		<contact type="facet-to-facet sliding" name="SlidingInterface04">
			<laugon>0</laugon>
			<tolerance>0.2</tolerance>
			<penalty>1</penalty>
			<two_pass>1</two_pass>
			<auto_penalty>1</auto_penalty>
			<fric_coeff>0</fric_coeff>
			<fric_penalty>0</fric_penalty>
			<search_tol>0.01</search_tol>
			<minaug>0</minaug>
			<maxaug>10</maxaug>
			<gaptol>0</gaptol>
			<seg_up>0</seg_up>
			<surface type="master" set="MasterSurface04"/>
			<surface type="slave" set="SlaveSurface04"/>
		</contact>
	</Contact>
	<LoadData>
		<loadcurve id="1" type="linear">
			<point>0,0</point>
			<point>2.5,5</point>
		</loadcurve>
	</LoadData>
	<Output>
		<plotfile type="febio"/>
		<logfile>
			<element_data data="E1">10489</element_data>
		</logfile>
	</Output>
</febio_spec>
