<?xml version="1.0" encoding="ISO-8859-1"?>
<!--
Problem Description:
	Two non-conforming saddle-shaped blocks are compressed against each other using
	the sliding2 symmetric contact method.
Main Features:
	Sliding2 Contact
Secondary Features:
	Augmented Lagrangian
Materials:
	Holmes-Mow
Degrees of Freedom: 61110
Results:
	Steps Completed: 20
	Equilibrium Iterations: 84
	Right Hand Evaluations: 139
	Siffness Reformations: 84
	Other:
		The maximum effective strain has a value of 0.309 units at time t=1.
 
Comments:
	
-->
<febio_spec version="1.2">
	<Module type="biphasic"/>
	<Control>
		<title>Saddle Problem</title>
		<time_steps>20</time_steps>
		<step_size>0.05</step_size>
		<max_refs>99</max_refs>
		<max_ups>0</max_ups>
		<dtol>0.05</dtol>
		<etol>0.01</etol>
		<rtol>0</rtol>
		<ptol>0.05</ptol>
		<lstol>999</lstol>
		<symmetric_biphasic>0</symmetric_biphasic>
	</Control>
	<Globals>
		<Constants>
			<T>0</T>
			<R>0</R>
			<Fc>0</Fc>
		</Constants>
	</Globals>
	<Material>
		<material id="1" name="Material 1" type="Holmes-Mow">
		  <E>0.4</E>
		  <v>0</v>
		  <beta>0.35</beta>
		</material>
	</Material>
	<Geometry>
		<Nodes>
			<node id="1">  1.8698485e-06,  5.0000000e-01, -1.4999990e+00</node>
			<node id="2">  1.2547838e-06,  1.0303062e+00, -1.5000000e+00</node>
			<node id="3">  1.8512092e-06,  5.1607077e-01, -1.5000000e+00</node>
			<node id="4">  1.8288419e-06,  5.3535570e-01, -1.5000000e+00</node>
			<node id="5">  1.8020013e-06,  5.5849762e-01, -1.5000000e+00</node>
			<node id="6">  1.7697924e-06,  5.8626792e-01, -1.5000000e+00</node>
			<node id="7">  1.7311419e-06,  6.1959228e-01, -1.5000000e+00</node>
			<node id="8">  1.6847612e-06,  6.5958151e-01, -1.5000000e+00</node>
			<node id="9">  1.6291044e-06,  7.0756859e-01, -1.5000000e+00</node>
			<node id="10">  1.5623162e-06,  7.6515308e-01, -1.5000000e+00</node>
			<node id="11">  1.4955280e-06,  8.2273757e-01, -1.5000000e+00</node>
			<node id="12">  1.4398711e-06,  8.7072465e-01, -1.5000000e+00</node>
			<node id="13">  1.3934904e-06,  9.1071388e-01, -1.5000000e+00</node>
			<node id="14">  1.3548399e-06,  9.4403823e-01, -1.5000000e+00</node>
			<node id="15">  1.3226311e-06,  9.7180853e-01, -1.5000000e+00</node>
			<node id="16">  1.2957904e-06,  9.9495045e-01, -1.5000000e+00</node>
			<node id="17">  1.2734231e-06,  1.0142354e+00, -1.5000000e+00</node>
			<node id="18">  2.0000000e-16,  5.0000000e-01,  1.5000000e+00</node>
			<node id="19">  3.0000000e-16,  1.0303062e+00,  1.5000000e+00</node>
			<node id="20">  1.0000000e-16,  5.1607077e-01,  1.5000000e+00</node>
<!-- ... 21400 like lines cut -->
		</Nodes>
		<Elements>
			<hex8 id="1" mat="1">     3,  1360,  1975,  1976,     1,    75,   118,   117</hex8>
			<hex8 id="2" mat="1">  1360,  1375,  1977,  1975,    75,    74,   119,   118</hex8>
			<hex8 id="3" mat="1">  1375,  1390,  1978,  1977,    74,    73,   120,   119</hex8>
			<hex8 id="4" mat="1">  1390,  1405,  1979,  1978,    73,    72,   121,   120</hex8>
			<hex8 id="5" mat="1">  1405,  1420,  1980,  1979,    72,    71,   122,   121</hex8>
			<hex8 id="6" mat="1">  1420,  1435,  1981,  1980,    71,    70,   123,   122</hex8>
			<hex8 id="7" mat="1">  1435,  1450,  1982,  1981,    70,    69,   124,   123</hex8>
			<hex8 id="8" mat="1">  1450,  1465,  1983,  1982,    69,    68,   125,   124</hex8>
			<hex8 id="9" mat="1">  1465,  1480,  1984,  1983,    68,    67,   126,   125</hex8>
			<hex8 id="10" mat="1">  1480,  1495,  1985,  1984,    67,    66,   127,   126</hex8>
			<hex8 id="11" mat="1">  1495,  1510,  1986,  1985,    66,    65,   128,   127</hex8>
			<hex8 id="12" mat="1">  1510,  1525,  1987,  1986,    65,    64,   129,   128</hex8>
			<hex8 id="13" mat="1">  1525,  1540,  1988,  1987,    64,    63,   130,   129</hex8>
			<hex8 id="14" mat="1">  1540,  1555,  1989,  1988,    63,    62,   131,   130</hex8>
			<hex8 id="15" mat="1">  1555,  1570,  1990,  1989,    62,    61,   132,   131</hex8>
			<hex8 id="16" mat="1">  1570,  1585,  1991,  1990,    61,    60,   133,   132</hex8>
			<hex8 id="17" mat="1">  1585,  1600,  1992,  1991,    60,    59,   134,   133</hex8>
			<hex8 id="18" mat="1">  1600,  1615,  1993,  1992,    59,    58,   135,   134</hex8>
			<hex8 id="19" mat="1">  1615,  1630,  1994,  1993,    58,    57,   136,   135</hex8>
			<hex8 id="20" mat="1">  1630,  1645,  1995,  1994,    57,    56,   137,   136</hex8>
<!-- ... 18764 like lines cut -->
		</Elements>
	</Geometry>
	<Boundary>
		<fix>
			<node id="2" bc="z"/>
			<node id="19" bc="z"/>
			<node id="663" bc="z"/>
			<node id="664" bc="z"/>
			<node id="665" bc="z"/>
			<node id="666" bc="z"/>
			<node id="667" bc="z"/>
			<node id="668" bc="z"/>
			<node id="669" bc="z"/>
			<node id="670" bc="z"/>
			<node id="671" bc="z"/>
			<node id="672" bc="z"/>
			<node id="673" bc="z"/>
			<node id="674" bc="z"/>
			<node id="675" bc="z"/>
			<node id="676" bc="z"/>
			<node id="677" bc="z"/>
			<node id="678" bc="z"/>
			<node id="679" bc="z"/>
			<node id="680" bc="z"/>
<!-- ... 1240 like lines cut -->
		</fix>
		<fix>
			<node id="2" bc="x"/>
			<node id="19" bc="x"/>
			<node id="663" bc="x"/>
			<node id="664" bc="x"/>
			<node id="665" bc="x"/>
			<node id="666" bc="x"/>
			<node id="667" bc="x"/>
			<node id="668" bc="x"/>
			<node id="669" bc="x"/>
			<node id="670" bc="x"/>
			<node id="671" bc="x"/>
			<node id="672" bc="x"/>
			<node id="673" bc="x"/>
			<node id="674" bc="x"/>
			<node id="675" bc="x"/>
			<node id="676" bc="x"/>
			<node id="677" bc="x"/>
			<node id="678" bc="x"/>
			<node id="679" bc="x"/>
			<node id="680" bc="x"/>
<!-- ... 1240 like lines cut -->
		</fix>
		<fix>
			<node id="10712" bc="y"/>
			<node id="10714" bc="y"/>
			<node id="10786" bc="y"/>
			<node id="10787" bc="y"/>
			<node id="10788" bc="y"/>
			<node id="10789" bc="y"/>
			<node id="10790" bc="y"/>
			<node id="10791" bc="y"/>
			<node id="10792" bc="y"/>
			<node id="10793" bc="y"/>
			<node id="10794" bc="y"/>
			<node id="10795" bc="y"/>
			<node id="10796" bc="y"/>
			<node id="10797" bc="y"/>
			<node id="10798" bc="y"/>
			<node id="10799" bc="y"/>
			<node id="10800" bc="y"/>
			<node id="10801" bc="y"/>
			<node id="10802" bc="y"/>
			<node id="10803" bc="y"/>
<!-- ... 610 like lines cut -->
		</fix>
		<fix>
			<node id="1" bc="p"/>
			<node id="2" bc="p"/>
			<node id="3" bc="p"/>
			<node id="4" bc="p"/>
			<node id="5" bc="p"/>
			<node id="6" bc="p"/>
			<node id="7" bc="p"/>
			<node id="8" bc="p"/>
			<node id="9" bc="p"/>
			<node id="10" bc="p"/>
			<node id="11" bc="p"/>
			<node id="12" bc="p"/>
			<node id="13" bc="p"/>
			<node id="14" bc="p"/>
			<node id="15" bc="p"/>
			<node id="16" bc="p"/>
			<node id="17" bc="p"/>
			<node id="18" bc="p"/>
			<node id="19" bc="p"/>
			<node id="20" bc="p"/>
<!-- ... 2836 like lines cut -->
		</fix>
		<prescribe>
			<node id="2" bc="y" lc="1">1</node>
			<node id="19" bc="y" lc="1">1</node>
			<node id="663" bc="y" lc="1">1</node>
			<node id="664" bc="y" lc="1">1</node>
			<node id="665" bc="y" lc="1">1</node>
			<node id="666" bc="y" lc="1">1</node>
			<node id="667" bc="y" lc="1">1</node>
			<node id="668" bc="y" lc="1">1</node>
			<node id="669" bc="y" lc="1">1</node>
			<node id="670" bc="y" lc="1">1</node>
			<node id="671" bc="y" lc="1">1</node>
			<node id="672" bc="y" lc="1">1</node>
			<node id="673" bc="y" lc="1">1</node>
			<node id="674" bc="y" lc="1">1</node>
			<node id="675" bc="y" lc="1">1</node>
			<node id="676" bc="y" lc="1">1</node>
			<node id="677" bc="y" lc="1">1</node>
			<node id="678" bc="y" lc="1">1</node>
			<node id="679" bc="y" lc="1">1</node>
			<node id="680" bc="y" lc="1">1</node>
<!-- ... 610 like lines cut -->
		</prescribe>
		<contact type="sliding2">
			<laugon>1</laugon>
			<tolerance>0.05</tolerance>
			<penalty>0.1</penalty>
			<two_pass>1</two_pass>
			<auto_penalty>1</auto_penalty>
			<pressure_penalty>0.1</pressure_penalty>
			<symmetric_stiffness>1</symmetric_stiffness>
			<search_radius>1</search_radius>
			<surface type="master" name="MasterSurface00">
				<quad4 id="1">     1,    75,   118,   117</quad4>
				<quad4 id="2">    75,    74,   119,   118</quad4>
				<quad4 id="3">    74,    73,   120,   119</quad4>
				<quad4 id="4">    73,    72,   121,   120</quad4>
				<quad4 id="5">    72,    71,   122,   121</quad4>
				<quad4 id="6">    71,    70,   123,   122</quad4>
				<quad4 id="7">    70,    69,   124,   123</quad4>
				<quad4 id="8">    69,    68,   125,   124</quad4>
				<quad4 id="9">    68,    67,   126,   125</quad4>
				<quad4 id="10">    67,    66,   127,   126</quad4>
				<quad4 id="11">    66,    65,   128,   127</quad4>
				<quad4 id="12">    65,    64,   129,   128</quad4>
				<quad4 id="13">    64,    63,   130,   129</quad4>
				<quad4 id="14">    63,    62,   131,   130</quad4>
				<quad4 id="15">    62,    61,   132,   131</quad4>
				<quad4 id="16">    61,    60,   133,   132</quad4>
				<quad4 id="17">    60,    59,   134,   133</quad4>
				<quad4 id="18">    59,    58,   135,   134</quad4>
				<quad4 id="19">    58,    57,   136,   135</quad4>
				<quad4 id="20">    57,    56,   137,   136</quad4>
<!-- ... 567 like lines cut -->
			</surface>
			<surface type="slave" name="SlaveSurface00">
				<quad4 id="1"> 10711, 10908, 12685, 12686</quad4>
				<quad4 id="2"> 10908, 10907, 12687, 12685</quad4>
				<quad4 id="3"> 10907, 10906, 12688, 12687</quad4>
				<quad4 id="4"> 10906, 10905, 12689, 12688</quad4>
				<quad4 id="5"> 10905, 10904, 12690, 12689</quad4>
				<quad4 id="6"> 10904, 10903, 12691, 12690</quad4>
				<quad4 id="7"> 10903, 10902, 12692, 12691</quad4>
				<quad4 id="8"> 10902, 10901, 12693, 12692</quad4>
				<quad4 id="9"> 10901, 10900, 12694, 12693</quad4>
				<quad4 id="10"> 10900, 10899, 12695, 12694</quad4>
				<quad4 id="11"> 10899, 10898, 12696, 12695</quad4>
				<quad4 id="12"> 10898, 10897, 12697, 12696</quad4>
				<quad4 id="13"> 10897, 10896, 12698, 12697</quad4>
				<quad4 id="14"> 10896, 10895, 12699, 12698</quad4>
				<quad4 id="15"> 10895, 10894, 12700, 12699</quad4>
				<quad4 id="16"> 10894, 10893, 12701, 12700</quad4>
				<quad4 id="17"> 10893, 10892, 12702, 12701</quad4>
				<quad4 id="18"> 10892, 10891, 12703, 12702</quad4>
				<quad4 id="19"> 10891, 10890, 12704, 12703</quad4>
				<quad4 id="20"> 10890, 10889, 12705, 12704</quad4>
<!-- ... 567 like lines cut -->
			</surface>
		</contact>
	</Boundary>
	<LoadData>
		<loadcurve id="1" type="linear">
			<loadpoint>0,0</loadpoint>
			<loadpoint>1,-0.3</loadpoint>
			<loadpoint>100000,-0.3</loadpoint>
		</loadcurve>
	</LoadData>
	<Output>
		<plotfile type="febio">
			<var type="contact force"/>
			<var type="contact gap"/>
			<var type="contact pressure"/>
			<var type="displacement"/>
			<var type="effective fluid pressure"/>
			<var type="fluid flux"/>
			<var type="fluid force"/>
			<var type="fluid pressure"/>
			<var type="pressure gap"/>
			<var type="relative volume"/>
			<var type="stress"/>
		</plotfile>
	</Output>
</febio_spec>
