<?xml version="1.0" encoding="ISO-8859-1"?>
<febio_spec version="2.5">
	<Module type="biphasic"/>
	<Control>
		<time_steps>20</time_steps>
		<step_size>0.05</step_size>
		<max_refs>5</max_refs>
		<max_ups>20</max_ups>
		<diverge_reform>1</diverge_reform>
		<reform_each_time_step>1</reform_each_time_step>
		<dtol>0.001</dtol>
		<etol>0.01</etol>
		<rtol>0.001</rtol>
		<ptol>0.01</ptol>
		<lstol>0.9</lstol>
		<min_residual>1e-20</min_residual>
		<qnmethod>1</qnmethod>
		<symmetric_stiffness>0</symmetric_stiffness>
	</Control>
	<Globals>
		<Constants>
			<T>0</T>
			<R>0</R>
			<Fc>0</Fc>
		</Constants>
	</Globals>
	<Material>
		<material id="1" name="Biphasic material" type="biphasic">
			<phi0>0.2</phi0>
			<fluid_density>1</fluid_density>
			<solid type="Holmes-Mow">
				<density>1</density>
				<E>1</E>
				<v>0</v>
				<beta>0.3</beta>
			</solid>
			<permeability type="perm-Holmes-Mow">
				<perm>0.001</perm>
				<M>2</M>
				<alpha>0</alpha>
			</permeability>
		</material>
	</Material>
	<Geometry>
		<Nodes name="saddle5">
			<node id="1">  1.8698485e-06,  5.0000000e-01, -1.4999990e+00</node>
			<node id="2">  1.2547838e-06,  1.0303062e+00, -1.5000000e+00</node>
			<node id="3">  1.8512092e-06,  5.1607077e-01, -1.5000000e+00</node>
			<node id="4">  1.8288419e-06,  5.3535570e-01, -1.5000000e+00</node>
			<node id="5">  1.8020013e-06,  5.5849762e-01, -1.5000000e+00</node>
			<node id="6">  1.7697924e-06,  5.8626792e-01, -1.5000000e+00</node>
			<node id="7">  1.7311419e-06,  6.1959228e-01, -1.5000000e+00</node>
			<node id="8">  1.6847612e-06,  6.5958151e-01, -1.5000000e+00</node>
			<node id="9">  1.6291044e-06,  7.0756859e-01, -1.5000000e+00</node>
			<node id="10">  1.5623162e-06,  7.6515308e-01, -1.5000000e+00</node>
			<node id="11">  1.4955280e-06,  8.2273757e-01, -1.5000000e+00</node>
			<node id="12">  1.4398711e-06,  8.7072465e-01, -1.5000000e+00</node>
			<node id="13">  1.3934904e-06,  9.1071388e-01, -1.5000000e+00</node>
			<node id="14">  1.3548399e-06,  9.4403823e-01, -1.5000000e+00</node>
			<node id="15">  1.3226311e-06,  9.7180853e-01, -1.5000000e+00</node>
			<node id="16">  1.2957904e-06,  9.9495045e-01, -1.5000000e+00</node>
			<node id="17">  1.2734231e-06,  1.0142354e+00, -1.5000000e+00</node>
			<node id="18">  2.0000000e-16,  5.0000000e-01,  1.5000000e+00</node>
			<node id="19">  3.0000000e-16,  1.0303062e+00,  1.5000000e+00</node>
			<node id="20">  1.0000000e-16,  5.1607077e-01,  1.5000000e+00</node>
<!-- ... 21400 like lines cut -->
		</Nodes>
		<Elements type="hex8" mat="1" name="Part1">
			<elem id="1">     3,  1360,  1975,  1976,     1,    75,   118,   117</elem>
			<elem id="2">  1360,  1375,  1977,  1975,    75,    74,   119,   118</elem>
			<elem id="3">  1375,  1390,  1978,  1977,    74,    73,   120,   119</elem>
			<elem id="4">  1390,  1405,  1979,  1978,    73,    72,   121,   120</elem>
			<elem id="5">  1405,  1420,  1980,  1979,    72,    71,   122,   121</elem>
			<elem id="6">  1420,  1435,  1981,  1980,    71,    70,   123,   122</elem>
			<elem id="7">  1435,  1450,  1982,  1981,    70,    69,   124,   123</elem>
			<elem id="8">  1450,  1465,  1983,  1982,    69,    68,   125,   124</elem>
			<elem id="9">  1465,  1480,  1984,  1983,    68,    67,   126,   125</elem>
			<elem id="10">  1480,  1495,  1985,  1984,    67,    66,   127,   126</elem>
			<elem id="11">  1495,  1510,  1986,  1985,    66,    65,   128,   127</elem>
			<elem id="12">  1510,  1525,  1987,  1986,    65,    64,   129,   128</elem>
			<elem id="13">  1525,  1540,  1988,  1987,    64,    63,   130,   129</elem>
			<elem id="14">  1540,  1555,  1989,  1988,    63,    62,   131,   130</elem>
			<elem id="15">  1555,  1570,  1990,  1989,    62,    61,   132,   131</elem>
			<elem id="16">  1570,  1585,  1991,  1990,    61,    60,   133,   132</elem>
			<elem id="17">  1585,  1600,  1992,  1991,    60,    59,   134,   133</elem>
			<elem id="18">  1600,  1615,  1993,  1992,    59,    58,   135,   134</elem>
			<elem id="19">  1615,  1630,  1994,  1993,    58,    57,   136,   135</elem>
			<elem id="20">  1630,  1645,  1995,  1994,    57,    56,   137,   136</elem>
<!-- ... 18764 like lines cut -->
		</Elements>
		<NodeSet name="FixedDisplacement01">
			<node id="2"/>
			<node id="19"/>
			<node id="663"/>
			<node id="664"/>
			<node id="665"/>
			<node id="666"/>
			<node id="667"/>
			<node id="668"/>
			<node id="669"/>
			<node id="670"/>
			<node id="671"/>
			<node id="672"/>
			<node id="673"/>
			<node id="674"/>
			<node id="675"/>
			<node id="676"/>
			<node id="677"/>
			<node id="678"/>
			<node id="679"/>
			<node id="680"/>
<!-- ... 1240 like lines cut -->
		</NodeSet>
		<NodeSet name="FixedDisplacement02">
			<node id="2"/>
			<node id="19"/>
			<node id="663"/>
			<node id="664"/>
			<node id="665"/>
			<node id="666"/>
			<node id="667"/>
			<node id="668"/>
			<node id="669"/>
			<node id="670"/>
			<node id="671"/>
			<node id="672"/>
			<node id="673"/>
			<node id="674"/>
			<node id="675"/>
			<node id="676"/>
			<node id="677"/>
			<node id="678"/>
			<node id="679"/>
			<node id="680"/>
<!-- ... 1240 like lines cut -->
		</NodeSet>
		<NodeSet name="FixedDisplacement03">
			<node id="10712"/>
			<node id="10714"/>
			<node id="10786"/>
			<node id="10787"/>
			<node id="10788"/>
			<node id="10789"/>
			<node id="10790"/>
			<node id="10791"/>
			<node id="10792"/>
			<node id="10793"/>
			<node id="10794"/>
			<node id="10795"/>
			<node id="10796"/>
			<node id="10797"/>
			<node id="10798"/>
			<node id="10799"/>
			<node id="10800"/>
			<node id="10801"/>
			<node id="10802"/>
			<node id="10803"/>
<!-- ... 610 like lines cut -->
		</NodeSet>
		<NodeSet name="FixedFluidPressure01">
			<node id="1"/>
			<node id="2"/>
			<node id="3"/>
			<node id="4"/>
			<node id="5"/>
			<node id="6"/>
			<node id="7"/>
			<node id="8"/>
			<node id="9"/>
			<node id="10"/>
			<node id="11"/>
			<node id="12"/>
			<node id="13"/>
			<node id="14"/>
			<node id="15"/>
			<node id="16"/>
			<node id="17"/>
			<node id="18"/>
			<node id="19"/>
			<node id="20"/>
<!-- ... 2836 like lines cut -->
		</NodeSet>
		<NodeSet name="PrescribedBC01">
			<node id="2"/>
			<node id="19"/>
			<node id="663"/>
			<node id="664"/>
			<node id="665"/>
			<node id="666"/>
			<node id="667"/>
			<node id="668"/>
			<node id="669"/>
			<node id="670"/>
			<node id="671"/>
			<node id="672"/>
			<node id="673"/>
			<node id="674"/>
			<node id="675"/>
			<node id="676"/>
			<node id="677"/>
			<node id="678"/>
			<node id="679"/>
			<node id="680"/>
<!-- ... 610 like lines cut -->
		</NodeSet>
		<Surface name="MasterSurface01">
			<quad4 id="1">     1,    75,   118,   117</quad4>
			<quad4 id="2">    75,    74,   119,   118</quad4>
			<quad4 id="3">    74,    73,   120,   119</quad4>
			<quad4 id="4">    73,    72,   121,   120</quad4>
			<quad4 id="5">    72,    71,   122,   121</quad4>
			<quad4 id="6">    71,    70,   123,   122</quad4>
			<quad4 id="7">    70,    69,   124,   123</quad4>
			<quad4 id="8">    69,    68,   125,   124</quad4>
			<quad4 id="9">    68,    67,   126,   125</quad4>
			<quad4 id="10">    67,    66,   127,   126</quad4>
			<quad4 id="11">    66,    65,   128,   127</quad4>
			<quad4 id="12">    65,    64,   129,   128</quad4>
			<quad4 id="13">    64,    63,   130,   129</quad4>
			<quad4 id="14">    63,    62,   131,   130</quad4>
			<quad4 id="15">    62,    61,   132,   131</quad4>
			<quad4 id="16">    61,    60,   133,   132</quad4>
			<quad4 id="17">    60,    59,   134,   133</quad4>
			<quad4 id="18">    59,    58,   135,   134</quad4>
			<quad4 id="19">    58,    57,   136,   135</quad4>
			<quad4 id="20">    57,    56,   137,   136</quad4>
<!-- ... 567 like lines cut -->
		</Surface>
		<Surface name="SlaveSurface01">
			<quad4 id="1"> 10711, 10908, 12685, 12686</quad4>
			<quad4 id="2"> 10908, 10907, 12687, 12685</quad4>
			<quad4 id="3"> 10907, 10906, 12688, 12687</quad4>
			<quad4 id="4"> 10906, 10905, 12689, 12688</quad4>
			<quad4 id="5"> 10905, 10904, 12690, 12689</quad4>
			<quad4 id="6"> 10904, 10903, 12691, 12690</quad4>
			<quad4 id="7"> 10903, 10902, 12692, 12691</quad4>
			<quad4 id="8"> 10902, 10901, 12693, 12692</quad4>
			<quad4 id="9"> 10901, 10900, 12694, 12693</quad4>
			<quad4 id="10"> 10900, 10899, 12695, 12694</quad4>
			<quad4 id="11"> 10899, 10898, 12696, 12695</quad4>
			<quad4 id="12"> 10898, 10897, 12697, 12696</quad4>
			<quad4 id="13"> 10897, 10896, 12698, 12697</quad4>
			<quad4 id="14"> 10896, 10895, 12699, 12698</quad4>
			<quad4 id="15"> 10895, 10894, 12700, 12699</quad4>
			<quad4 id="16"> 10894, 10893, 12701, 12700</quad4>
			<quad4 id="17"> 10893, 10892, 12702, 12701</quad4>
			<quad4 id="18"> 10892, 10891, 12703, 12702</quad4>
			<quad4 id="19"> 10891, 10890, 12704, 12703</quad4>
			<quad4 id="20"> 10890, 10889, 12705, 12704</quad4>
<!-- ... 567 like lines cut -->
		</Surface>
		<ElementSet name="elementset01">
			<elem id="9369"/>
		</ElementSet>
		<ElementSet name="elementset01">
			<elem id="9369"/>
		</ElementSet>
		<SurfacePair name="BiphasicContact01">
			<master surface="MasterSurface01"/>
			<slave surface="SlaveSurface01"/>
		</SurfacePair>
	</Geometry>
	<Boundary>
		<fix bc="z" node_set="FixedDisplacement01"/>
		<fix bc="x" node_set="FixedDisplacement02"/>
		<fix bc="y" node_set="FixedDisplacement03"/>
		<fix bc="p" node_set="FixedFluidPressure01"/>
		<prescribe bc="y" node_set="PrescribedBC01">
			<scale lc="1">1</scale>
			<relative>0</relative>
		</prescribe>
	</Boundary>
	<Contact>
		<contact type="sliding-biphasic" name="BiphasicContact01" surface_pair="BiphasicContact01">
			<laugon>1</laugon>
			<tolerance>0.05</tolerance>
			<gaptol>0</gaptol>
			<ptol>0</ptol>
			<penalty>0.1</penalty>
			<two_pass>1</two_pass>
			<auto_penalty>1</auto_penalty>
			<pressure_penalty>1</pressure_penalty>
			<symmetric_stiffness>0</symmetric_stiffness>
			<search_radius>1</search_radius>
			<seg_up>0</seg_up>
			<minaug>0</minaug>
			<maxaug>10</maxaug>
			<search_tol>0.01</search_tol>
		</contact>
	</Contact>
	<LoadData>
		<loadcurve id="1" type="linear">
			<point>0,0</point>
			<point>1,-0.25</point>
			<point>100000,-0.25</point>
		</loadcurve>
	</LoadData>
	<Output>
		<plotfile type="febio">
			<var type="contact force"/>
			<var type="contact gap"/>
			<var type="contact pressure"/>
			<var type="displacement"/>
			<var type="relative volume"/>
			<var type="stress"/>
			<var type="effective fluid pressure"/>
			<var type="fluid pressure"/>
			<var type="fluid flux"/>
			<var type="fluid force"/>
			<var type="pressure gap"/>
		</plotfile>
		<logfile>
			<element_data data="s1" elem_set="elementset01"/>
		</logfile>
	</Output>
</febio_spec>
