<?xml version="1.0" encoding="UTF-8"?>
<!--
Problem Description:
	Two non-conforming saddle-shaped blocks are compressed against each other using
	the sliding2 symmetric contact method.
Main Features:
	Sliding2 Contact
Secondary Features:
	Augmented Lagrangian
Materials:
	Holmes-Mow
Degrees of Freedom: 61110
Results:
	Steps Completed: 20
	Equilibrium Iterations: 84
	Right Hand Evaluations: 139
	Siffness Reformations: 84
	Other:
		Node 55 (on the bottom edge of the top saddle block on the positive x-axis)
		has a y-displacement of -0.235 at time t=1.
 
Comments:
	
-->
<febio_spec version="1.0">
	<Module type="poro"/>
	<Control>
		<title>Saddle Problem</title>
		<time_steps>20</time_steps>
		<step_size>  0.05</step_size>
		<max_refs>99</max_refs>
		<max_ups>0</max_ups>
		<dtol>0.05</dtol>
		<etol>0.01</etol>
		<rtol>0</rtol>
		<ptol>0.05</ptol>
		<lstol>999</lstol>
		<plot_level>PLOT_DEFAULT</plot_level>
		<symmetric_biphasic>0</symmetric_biphasic>
	</Control>
	<Material>
		<material id="1" name="Material 1" type="Holmes-Mow">
		  <E>0.4</E>
		  <v>0</v>
		  <beta>0.35</beta>
		</material>
	</Material>
	<Geometry>
		<Nodes>
			<node id="1">  1.8698485281000000e-06,  4.9999999999868899e-01, -1.4999990463256836e+00</node>
			<node id="2">  1.2547837890000000e-06,  1.0303061543293826e+00, -1.4999999999994751e+00</node>
			<node id="3">  1.8512091684000001e-06,  5.1607077485556907e-01, -1.4999999999988576e+00</node>
			<node id="4">  1.8288419373000000e-06,  5.3535570468382065e-01, -1.4999999999988849e+00</node>
			<node id="5">  1.8020012603000000e-06,  5.5849762047772700e-01, -1.4999999999989175e+00</node>
			<node id="6">  1.7697924470000000e-06,  5.8626791943041301e-01, -1.4999999999989559e+00</node>
			<node id="7">  1.7311418716000000e-06,  6.1959227817363605e-01, -1.4999999999990012e+00</node>
			<node id="8">  1.6847611813000001e-06,  6.5958150866550458e-01, -1.4999999999990536e+00</node>
			<node id="9">  1.6291043528000001e-06,  7.0756858525574540e-01, -1.4999999999991154e+00</node>
			<node id="10">  1.5623161585000000e-06,  7.6515307716403580e-01, -1.4999999999991864e+00</node>
			<node id="11">  1.4955279642000001e-06,  8.2273756907232531e-01, -1.4999999999992544e+00</node>
			<node id="12">  1.4398711354000001e-06,  8.7072464566256613e-01, -1.4999999999993090e+00</node>
			<node id="13">  1.3934904450999999e-06,  9.1071387615443555e-01, -1.4999999999993525e+00</node>
			<node id="14">  1.3548398696999999e-06,  9.4403823489765859e-01, -1.4999999999993880e+00</node>
			<node id="15">  1.3226310568000000e-06,  9.7180853385034460e-01, -1.4999999999994169e+00</node>
			<node id="16">  1.2957903798000000e-06,  9.9495044964425006e-01, -1.4999999999994400e+00</node>
			<node id="17">  1.2734231483999999e-06,  1.0142353794725043e+00, -1.4999999999994595e+00</node>
			<node id="18">  2.0000000000000000e-16,  4.9999999999999961e-01,  1.5000000000000000e+00</node>
			<node id="19">  2.9999999999999999e-16,  1.0303061543300931e+00,  1.5000000000000000e+00</node>
			<node id="20">  9.9999999999999998e-17,  5.1607077485685959e-01,  1.5000000000000000e+00</node>
<!-- ... 21400 like lines cut -->
		</Nodes>
		<Elements>
			<hex8 id="1" mat="1"> 3, 1360, 1975, 1976, 1, 75, 118, 117</hex8>
			<hex8 id="2" mat="1"> 1360, 1375, 1977, 1975, 75, 74, 119, 118</hex8>
			<hex8 id="3" mat="1"> 1375, 1390, 1978, 1977, 74, 73, 120, 119</hex8>
			<hex8 id="4" mat="1"> 1390, 1405, 1979, 1978, 73, 72, 121, 120</hex8>
			<hex8 id="5" mat="1"> 1405, 1420, 1980, 1979, 72, 71, 122, 121</hex8>
			<hex8 id="6" mat="1"> 1420, 1435, 1981, 1980, 71, 70, 123, 122</hex8>
			<hex8 id="7" mat="1"> 1435, 1450, 1982, 1981, 70, 69, 124, 123</hex8>
			<hex8 id="8" mat="1"> 1450, 1465, 1983, 1982, 69, 68, 125, 124</hex8>
			<hex8 id="9" mat="1"> 1465, 1480, 1984, 1983, 68, 67, 126, 125</hex8>
			<hex8 id="10" mat="1"> 1480, 1495, 1985, 1984, 67, 66, 127, 126</hex8>
			<hex8 id="11" mat="1"> 1495, 1510, 1986, 1985, 66, 65, 128, 127</hex8>
			<hex8 id="12" mat="1"> 1510, 1525, 1987, 1986, 65, 64, 129, 128</hex8>
			<hex8 id="13" mat="1"> 1525, 1540, 1988, 1987, 64, 63, 130, 129</hex8>
			<hex8 id="14" mat="1"> 1540, 1555, 1989, 1988, 63, 62, 131, 130</hex8>
			<hex8 id="15" mat="1"> 1555, 1570, 1990, 1989, 62, 61, 132, 131</hex8>
			<hex8 id="16" mat="1"> 1570, 1585, 1991, 1990, 61, 60, 133, 132</hex8>
			<hex8 id="17" mat="1"> 1585, 1600, 1992, 1991, 60, 59, 134, 133</hex8>
			<hex8 id="18" mat="1"> 1600, 1615, 1993, 1992, 59, 58, 135, 134</hex8>
			<hex8 id="19" mat="1"> 1615, 1630, 1994, 1993, 58, 57, 136, 135</hex8>
			<hex8 id="20" mat="1"> 1630, 1645, 1995, 1994, 57, 56, 137, 136</hex8>
<!-- ... 18764 like lines cut -->
		</Elements>
	</Geometry>
	<Boundary>
		<fix>
			<node id="2" bc="x"></node>
			<node id="2" bc="z"></node>
			<node id="19" bc="x"></node>
			<node id="19" bc="z"></node>
			<node id="663" bc="x"></node>
			<node id="663" bc="z"></node>
			<node id="664" bc="x"></node>
			<node id="664" bc="z"></node>
			<node id="665" bc="x"></node>
			<node id="665" bc="z"></node>
			<node id="666" bc="x"></node>
			<node id="666" bc="z"></node>
			<node id="667" bc="x"></node>
			<node id="667" bc="z"></node>
			<node id="668" bc="x"></node>
			<node id="668" bc="z"></node>
			<node id="669" bc="x"></node>
			<node id="669" bc="z"></node>
			<node id="670" bc="x"></node>
			<node id="670" bc="z"></node>
			<node id="671" bc="x"></node>
			<node id="671" bc="z"></node>
			<node id="672" bc="x"></node>
			<node id="672" bc="z"></node>
			<node id="673" bc="x"></node>
			<node id="673" bc="z"></node>
			<node id="674" bc="x"></node>
			<node id="674" bc="z"></node>
			<node id="675" bc="x"></node>
			<node id="675" bc="z"></node>
			<node id="676" bc="x"></node>
			<node id="676" bc="z"></node>
			<node id="677" bc="x"></node>
			<node id="677" bc="z"></node>
			<node id="678" bc="x"></node>
			<node id="678" bc="z"></node>
			<node id="679" bc="x"></node>
			<node id="679" bc="z"></node>
			<node id="680" bc="x"></node>
			<node id="680" bc="z"></node>
<!-- ... 1221 like lines cut -->
			<node id="10712" bc="y"></node>
			<node id="10712" bc="z"></node>
			<node id="10714" bc="x"></node>
			<node id="10714" bc="y"></node>
			<node id="10714" bc="z"></node>
			<node id="10786" bc="x"></node>
			<node id="10786" bc="y"></node>
			<node id="10786" bc="z"></node>
			<node id="10787" bc="x"></node>
			<node id="10787" bc="y"></node>
			<node id="10787" bc="z"></node>
			<node id="10788" bc="x"></node>
			<node id="10788" bc="y"></node>
			<node id="10788" bc="z"></node>
			<node id="10789" bc="x"></node>
			<node id="10789" bc="y"></node>
			<node id="10789" bc="z"></node>
			<node id="10790" bc="x"></node>
			<node id="10790" bc="y"></node>
			<node id="10790" bc="z"></node>
			<node id="10791" bc="x"></node>
			<node id="10791" bc="y"></node>
			<node id="10791" bc="z"></node>
			<node id="10792" bc="x"></node>
			<node id="10792" bc="y"></node>
			<node id="10792" bc="z"></node>
			<node id="10793" bc="x"></node>
			<node id="10793" bc="y"></node>
			<node id="10793" bc="z"></node>
			<node id="10794" bc="x"></node>
			<node id="10794" bc="y"></node>
			<node id="10794" bc="z"></node>
			<node id="10795" bc="x"></node>
			<node id="10795" bc="y"></node>
			<node id="10795" bc="z"></node>
			<node id="10796" bc="x"></node>
			<node id="10796" bc="y"></node>
			<node id="10796" bc="z"></node>
			<node id="10797" bc="x"></node>
			<node id="10797" bc="y"></node>
			<node id="10797" bc="z"></node>
			<node id="10798" bc="x"></node>
			<node id="10798" bc="y"></node>
			<node id="10798" bc="z"></node>
			<node id="10799" bc="x"></node>
			<node id="10799" bc="y"></node>
			<node id="10799" bc="z"></node>
			<node id="10800" bc="x"></node>
			<node id="10800" bc="y"></node>
			<node id="10800" bc="z"></node>
			<node id="10801" bc="x"></node>
			<node id="10801" bc="y"></node>
			<node id="10801" bc="z"></node>
			<node id="10802" bc="x"></node>
			<node id="10802" bc="y"></node>
			<node id="10802" bc="z"></node>
			<node id="10803" bc="x"></node>
			<node id="10803" bc="y"></node>
			<node id="10803" bc="z"></node>
			<node id="10804" bc="x"></node>
<!-- ... 1829 like lines cut -->
		</fix>
		<prescribe>
			<node id="2" bc="y" lc="1">  1.0000000000000000e+00</node>
			<node id="19" bc="y" lc="1">  1.0000000000000000e+00</node>
			<node id="663" bc="y" lc="1">  1.0000000000000000e+00</node>
			<node id="664" bc="y" lc="1">  1.0000000000000000e+00</node>
			<node id="665" bc="y" lc="1">  1.0000000000000000e+00</node>
			<node id="666" bc="y" lc="1">  1.0000000000000000e+00</node>
			<node id="667" bc="y" lc="1">  1.0000000000000000e+00</node>
			<node id="668" bc="y" lc="1">  1.0000000000000000e+00</node>
			<node id="669" bc="y" lc="1">  1.0000000000000000e+00</node>
			<node id="670" bc="y" lc="1">  1.0000000000000000e+00</node>
			<node id="671" bc="y" lc="1">  1.0000000000000000e+00</node>
			<node id="672" bc="y" lc="1">  1.0000000000000000e+00</node>
			<node id="673" bc="y" lc="1">  1.0000000000000000e+00</node>
			<node id="674" bc="y" lc="1">  1.0000000000000000e+00</node>
			<node id="675" bc="y" lc="1">  1.0000000000000000e+00</node>
			<node id="676" bc="y" lc="1">  1.0000000000000000e+00</node>
			<node id="677" bc="y" lc="1">  1.0000000000000000e+00</node>
			<node id="678" bc="y" lc="1">  1.0000000000000000e+00</node>
			<node id="679" bc="y" lc="1">  1.0000000000000000e+00</node>
			<node id="680" bc="y" lc="1">  1.0000000000000000e+00</node>
<!-- ... 610 like lines cut -->
		</prescribe>
		<contact type="sliding2">
			<two_pass>1</two_pass>
			<penalty>0.1</penalty>
			<laugon>1</laugon>
			<tolerance>0.05</tolerance>
			<auto_penalty>1</auto_penalty>
			<symmetric_stiffness>1</symmetric_stiffness>
			<surface type="slave" format="element face">
				<quad4 id="1"> 1, 6</quad4>
				<quad4 id="2"> 2, 6</quad4>
				<quad4 id="3"> 3, 6</quad4>
				<quad4 id="4"> 4, 6</quad4>
				<quad4 id="5"> 5, 6</quad4>
				<quad4 id="6"> 6, 6</quad4>
				<quad4 id="7"> 7, 6</quad4>
				<quad4 id="8"> 8, 6</quad4>
				<quad4 id="9"> 9, 6</quad4>
				<quad4 id="10"> 10, 6</quad4>
				<quad4 id="11"> 11, 6</quad4>
				<quad4 id="12"> 12, 6</quad4>
				<quad4 id="13"> 13, 6</quad4>
				<quad4 id="14"> 14, 6</quad4>
				<quad4 id="15"> 15, 6</quad4>
				<quad4 id="16"> 16, 6</quad4>
				<quad4 id="17"> 17, 6</quad4>
				<quad4 id="18"> 18, 6</quad4>
				<quad4 id="19"> 19, 6</quad4>
				<quad4 id="20"> 20, 6</quad4>
<!-- ... 567 like lines cut -->
			</surface>
			<surface type="master" format="element face">
				<quad4 id="1"> 9393, 6</quad4>
				<quad4 id="2"> 9394, 6</quad4>
				<quad4 id="3"> 9395, 6</quad4>
				<quad4 id="4"> 9396, 6</quad4>
				<quad4 id="5"> 9397, 6</quad4>
				<quad4 id="6"> 9398, 6</quad4>
				<quad4 id="7"> 9399, 6</quad4>
				<quad4 id="8"> 9400, 6</quad4>
				<quad4 id="9"> 9401, 6</quad4>
				<quad4 id="10"> 9402, 6</quad4>
				<quad4 id="11"> 9403, 6</quad4>
				<quad4 id="12"> 9404, 6</quad4>
				<quad4 id="13"> 9405, 6</quad4>
				<quad4 id="14"> 9406, 6</quad4>
				<quad4 id="15"> 9407, 6</quad4>
				<quad4 id="16"> 9408, 6</quad4>
				<quad4 id="17"> 9409, 6</quad4>
				<quad4 id="18"> 9410, 6</quad4>
				<quad4 id="19"> 9411, 6</quad4>
				<quad4 id="20"> 9412, 6</quad4>
<!-- ... 567 like lines cut -->
			</surface>
		</contact>
	</Boundary>
	<LoadData>
		<loadcurve id="1">
			<loadpoint>  0.0000000000000000e+00,  0.0000000000000000e+00</loadpoint>
			<loadpoint>  1.0000000000000000e+00, -2.9999999999999999e-01</loadpoint>
			<loadpoint>  1.0000000000000000e+05, -2.9999999999999999e-01</loadpoint>
		</loadcurve>
	</LoadData>
</febio_spec>
