<?xml version="1.0" encoding="ISO-8859-1"?>
<!--
Problem Description:
	Twisted cylinder problem for structured nodally integrated tet mesh.  The inner
	face of the cylinder is constrained and the outer face is rotated 0.8 radians.
Main Features:
	Nodally integrated tet.
Secondary Features:
	
Materials:
	Mooney-Rivlin
Degrees of Freedom: 15238
Results:
	Steps Completed: 14
	Equilibrium Iterations: 150
	Right Hand Evaluations: 197
	Siffness Reformations: 22
	Other:
		The maximum Von Mises stress is 107 at time t=1.
 
Comments:
	
-->
<febio_spec version="1.2">
	<Module type="solid"/>
	<Control>
		<title>Twisted Cylinder</title>
		<time_steps>10</time_steps>
		<step_size>0.1</step_size>
		<max_refs>15</max_refs>
		<max_ups>10</max_ups>
		<dtol>0.001</dtol>
		<etol>0.01</etol>
		<rtol>0</rtol>
		<lstol>0.9</lstol>
		<time_stepper>
			<dtmin>0.01</dtmin>
			<dtmax>0.1</dtmax>
			<max_retries>5</max_retries>
			<opt_iter>10</opt_iter>
		</time_stepper>
		<plane_strain>1</plane_strain>
		<integration>
			<rule elem="tet4" type="UT4">
				<alpha>0.2</alpha>
	<!-- Iso stab = 0 = section 4 (deviatoric only), = 1 = section 5 (isochoric too) -->
				<iso_stab>1</iso_stab>
			</rule>
		</integration>
	</Control>
	<Material>
		<material id="1" name="Tube_Material" type="Mooney-Rivlin">
			<density>1</density>
			<c1>10</c1>
			<c2>0</c2>
			<k>10000</k>
		</material>
		<material id="2" name="Outer_Material" type="rigid body">
			<density>1</density>
			<center_of_mass>0,0,0</center_of_mass>
		</material>
	</Material>
	<Geometry>
		<Nodes>
			<node id="1">  1.0000000e+00,  0.0000000e+00,  0.0000000e+00</node>
			<node id="2">  1.1250000e+00,  0.0000000e+00,  0.0000000e+00</node>
			<node id="3">  1.2500000e+00,  0.0000000e+00,  0.0000000e+00</node>
			<node id="4">  1.3750000e+00,  0.0000000e+00,  0.0000000e+00</node>
			<node id="5">  1.5000000e+00,  0.0000000e+00,  0.0000000e+00</node>
			<node id="6">  1.6250000e+00,  0.0000000e+00,  0.0000000e+00</node>
			<node id="7">  1.7500000e+00,  0.0000000e+00,  0.0000000e+00</node>
			<node id="8">  1.8750000e+00,  0.0000000e+00,  0.0000000e+00</node>
			<node id="9">  2.0000000e+00,  0.0000000e+00,  0.0000000e+00</node>
			<node id="10">  9.9518473e-01,  9.8017139e-02,  0.0000000e+00</node>
			<node id="11">  1.1195828e+00,  1.1026928e-01,  0.0000000e+00</node>
			<node id="12">  1.2439809e+00,  1.2252142e-01,  0.0000000e+00</node>
			<node id="13">  1.3683790e+00,  1.3477357e-01,  0.0000000e+00</node>
			<node id="14">  1.4927771e+00,  1.4702571e-01,  0.0000000e+00</node>
			<node id="15">  1.6171752e+00,  1.5927785e-01,  0.0000000e+00</node>
			<node id="16">  1.7415733e+00,  1.7152999e-01,  0.0000000e+00</node>
			<node id="17">  1.8659714e+00,  1.8378213e-01,  0.0000000e+00</node>
			<node id="18">  1.9903695e+00,  1.9603428e-01,  0.0000000e+00</node>
			<node id="19">  9.8078528e-01,  1.9509032e-01,  0.0000000e+00</node>
			<node id="20">  1.1033834e+00,  2.1947661e-01,  0.0000000e+00</node>
<!-- ... 9772 like lines cut -->
		</Nodes>
		<Elements>
			<tet4 id="1" mat="1">     2,    11,    10,   587</tet4>
			<tet4 id="2" mat="1">     1,     2,    10,   587</tet4>
			<tet4 id="3" mat="1">     1,   587,    10,   586</tet4>
			<tet4 id="4" mat="1">     2,   578,   587,     1</tet4>
			<tet4 id="5" mat="1">   577,   586,   578,     1</tet4>
			<tet4 id="6" mat="1">   578,   586,   587,     1</tet4>
			<tet4 id="7" mat="1">     3,    12,    11,   588</tet4>
			<tet4 id="8" mat="1">     2,     3,    11,   588</tet4>
			<tet4 id="9" mat="1">     2,   588,    11,   587</tet4>
			<tet4 id="10" mat="1">     3,   579,   588,     2</tet4>
			<tet4 id="11" mat="1">   578,   587,   579,     2</tet4>
			<tet4 id="12" mat="1">   579,   587,   588,     2</tet4>
			<tet4 id="13" mat="1">     4,    13,    12,   589</tet4>
			<tet4 id="14" mat="1">     3,     4,    12,   589</tet4>
			<tet4 id="15" mat="1">     3,   589,    12,   588</tet4>
			<tet4 id="16" mat="1">     4,   580,   589,     3</tet4>
			<tet4 id="17" mat="1">   579,   588,   580,     3</tet4>
			<tet4 id="18" mat="1">   580,   588,   589,     3</tet4>
			<tet4 id="19" mat="1">     5,    14,    13,   590</tet4>
			<tet4 id="20" mat="1">     4,     5,    13,   590</tet4>
<!-- ... 49132 like lines cut -->
		</Elements>
	</Geometry>
	<Boundary>
		<fix>
			<node id="1" bc="xyz"/>
			<node id="10" bc="xyz"/>
			<node id="19" bc="xyz"/>
			<node id="28" bc="xyz"/>
			<node id="37" bc="xyz"/>
			<node id="46" bc="xyz"/>
			<node id="55" bc="xyz"/>
			<node id="64" bc="xyz"/>
			<node id="73" bc="xyz"/>
			<node id="82" bc="xyz"/>
			<node id="91" bc="xyz"/>
			<node id="100" bc="xyz"/>
			<node id="109" bc="xyz"/>
			<node id="118" bc="xyz"/>
			<node id="127" bc="xyz"/>
			<node id="136" bc="xyz"/>
			<node id="145" bc="xyz"/>
			<node id="154" bc="xyz"/>
			<node id="163" bc="xyz"/>
			<node id="172" bc="xyz"/>
<!-- ... 1068 like lines cut -->
		</fix>
		<contact type="rigid">
			<node id="9" rb="2"></node>
			<node id="18" rb="2"></node>
			<node id="27" rb="2"></node>
			<node id="36" rb="2"></node>
			<node id="45" rb="2"></node>
			<node id="54" rb="2"></node>
			<node id="63" rb="2"></node>
			<node id="72" rb="2"></node>
			<node id="81" rb="2"></node>
			<node id="90" rb="2"></node>
			<node id="99" rb="2"></node>
			<node id="108" rb="2"></node>
			<node id="117" rb="2"></node>
			<node id="126" rb="2"></node>
			<node id="135" rb="2"></node>
			<node id="144" rb="2"></node>
			<node id="153" rb="2"></node>
			<node id="162" rb="2"></node>
			<node id="171" rb="2"></node>
			<node id="180" rb="2"></node>
<!-- ... 1068 like lines cut -->
		</contact>
	</Boundary>
	<Constraints>
		<rigid_body mat="2">
			<rot_x type="fixed"/>
			<rot_y type="fixed"/>
			<rot_z type="prescribed" lc="1">1</rot_z>
		</rigid_body>
	</Constraints>
	<LoadData>
		<loadcurve id="1" type="smooth">
			<loadpoint>0,0</loadpoint>
			<loadpoint>1,0.8</loadpoint>
		</loadcurve>
	</LoadData>
	<Output>
		<plotfile type="febio">
			<var type="displacement"/>
			<var type="stress"/>
		</plotfile>
		<logfile>
			<element_data data="s1">27555</element_data>
		</logfile>
	</Output>
</febio_spec>
