<?xml version="1.0" encoding="ISO-8859-1"?>
<!--
Problem Description:
	Biphasic unconfined compression of a circular disk.  The disk is modeled using
	a wedge with 30 elements along the radial direction. It has a radius of 3 mm
	and a thickness of 1 mm. It is compressed in the z-direction by -0.2 mm using 
	a step function, then allowed to relax to time t=1e4 s.
Main Features:
	Biphasic
Secondary Features:
	Non-uniform element thickness in r-direction.
	Axisymmetry modeled using wedge geometry and symmetry plane with 
	sliding-tension-compression contact interface.
Materials:
	Neo-Hookean
	Biphasic
Degrees of Freedom: 359
Results:
	Steps Completed: 65
	Equilibrium Iterations: 182
	Right Hand Evaluations: 247
	Siffness Reformations: 182
	Other:
	
Comments:
	
-->
<febio_spec version="2.0">
	<Module type="biphasic"/>
	<Control>
		<time_steps>100000</time_steps>
		<step_size>0.1</step_size>
		<max_refs>15</max_refs>
		<max_ups>0</max_ups>
		<dtol>0.001</dtol>
		<etol>0.01</etol>
		<rtol>0</rtol>
		<ptol>0.01</ptol>
		<lstol>0.9</lstol>
		<time_stepper>
			<dtmin>0.01</dtmin>
			<dtmax lc="1"></dtmax>
			<max_retries>5</max_retries>
			<opt_iter>10</opt_iter>
		</time_stepper>
		<symmetric_biphasic>0</symmetric_biphasic>
	</Control>
	<Globals>
		<Constants>
			<T>0</T>
			<R>0</R>
			<Fc>0</Fc>
		</Constants>
	</Globals>
	<Material>
		<material id="1" name="Biphasic Material" type="biphasic">
			<phi0>0.2</phi0>
			<solid type="neo-Hookean">
				<density>1</density>
				<E>1</E>
				<v>0.1</v>
			</solid>
			<permeability type="perm-const-iso">
				<perm>0.001</perm>
			</permeability>
		</material>
		<material id="2" name="Symmetry Plane" type="rigid body">
			<density>1</density>
			<center_of_mass>0,0,0</center_of_mass>
		</material>
	</Material>
	<Geometry>
		<Nodes>
			<node id="1"> 0.0000000e+000, 0.0000000e+000, 0.0000000e+000</node>
			<node id="2"> 3.9607228e-001, 0.0000000e+000, 0.0000000e+000</node>
			<node id="3"> 3.9552948e-001, 2.0728821e-002, 0.0000000e+000</node>
			<node id="4"> 7.4065517e-001, 0.0000000e+000, 0.0000000e+000</node>
			<node id="5"> 7.3964013e-001, 3.8762896e-002, 0.0000000e+000</node>
			<node id="6"> 1.0404423e+000, 0.0000000e+000, 0.0000000e+000</node>
			<node id="7"> 1.0390164e+000, 5.4452541e-002, 0.0000000e+000</node>
			<node id="8"> 1.3012571e+000, 0.0000000e+000, 0.0000000e+000</node>
			<node id="9"> 1.2994737e+000, 6.8102532e-002, 0.0000000e+000</node>
			<node id="10"> 1.5281659e+000, 0.0000000e+000, 0.0000000e+000</node>
			<node id="11"> 1.5260716e+000, 7.9978024e-002, 0.0000000e+000</node>
			<node id="12"> 1.7255766e+000, 0.0000000e+000, 0.0000000e+000</node>
			<node id="13"> 1.7232118e+000, 9.0309702e-002, 0.0000000e+000</node>
			<node id="14"> 1.8973240e+000, 0.0000000e+000, 0.0000000e+000</node>
			<node id="15"> 1.8947237e+000, 9.9298262e-002, 0.0000000e+000</node>
			<node id="16"> 2.0467441e+000, 0.0000000e+000, 0.0000000e+000</node>
			<node id="17"> 2.0439391e+000, 1.0711831e-001, 0.0000000e+000</node>
			<node id="18"> 2.1767397e+000, 0.0000000e+000, 0.0000000e+000</node>
			<node id="19"> 2.1737565e+000, 1.1392175e-001, 0.0000000e+000</node>
			<node id="20"> 2.2898358e+000, 0.0000000e+000, 0.0000000e+000</node>
<!-- ... 106 like lines cut -->
		</Nodes>
		<Elements type="penta6" mat="1" elset="Part1">
			<elem id="1">     1,     2,     3,    62,    63,    64</elem>
		</Elements>
		<Elements type="hex8" mat="1" elset="Part1">
			<elem id="2">     2,     4,     5,     3,    63,    65,    66,    64</elem>
			<elem id="3">     4,     6,     7,     5,    65,    67,    68,    66</elem>
			<elem id="4">     6,     8,     9,     7,    67,    69,    70,    68</elem>
			<elem id="5">     8,    10,    11,     9,    69,    71,    72,    70</elem>
			<elem id="6">    10,    12,    13,    11,    71,    73,    74,    72</elem>
			<elem id="7">    12,    14,    15,    13,    73,    75,    76,    74</elem>
			<elem id="8">    14,    16,    17,    15,    75,    77,    78,    76</elem>
			<elem id="9">    16,    18,    19,    17,    77,    79,    80,    78</elem>
			<elem id="10">    18,    20,    21,    19,    79,    81,    82,    80</elem>
			<elem id="11">    20,    22,    23,    21,    81,    83,    84,    82</elem>
			<elem id="12">    22,    24,    25,    23,    83,    85,    86,    84</elem>
			<elem id="13">    24,    26,    27,    25,    85,    87,    88,    86</elem>
			<elem id="14">    26,    28,    29,    27,    87,    89,    90,    88</elem>
			<elem id="15">    28,    30,    31,    29,    89,    91,    92,    90</elem>
			<elem id="16">    30,    32,    33,    31,    91,    93,    94,    92</elem>
			<elem id="17">    32,    34,    35,    33,    93,    95,    96,    94</elem>
			<elem id="18">    34,    36,    37,    35,    95,    97,    98,    96</elem>
			<elem id="19">    36,    38,    39,    37,    97,    99,   100,    98</elem>
			<elem id="20">    38,    40,    41,    39,    99,   101,   102,   100</elem>
			<elem id="21">    40,    42,    43,    41,   101,   103,   104,   102</elem>
<!-- ... 9 like lines cut -->
		</Elements>
		<Elements type="quad4" mat="2" elset="Part2">
			<elem id="31">   123,   125,   126,   124</elem>
		</Elements>
		<ElementData>
			<element id="31">
				<thickness>0.01,0.01,0.01,0.01</thickness>
			</element>
		</ElementData>
		<Surface name="Surface01">
			<quad4 id="1">   123,   125,   126,   124</quad4>
		</Surface>
		<Surface name="Surface02">
			<quad4 id="1">     1,    62,    64,     3</quad4>
			<quad4 id="2">     5,     3,    64,    66</quad4>
			<quad4 id="3">     7,     5,    66,    68</quad4>
			<quad4 id="4">     9,     7,    68,    70</quad4>
			<quad4 id="5">    11,     9,    70,    72</quad4>
			<quad4 id="6">    13,    11,    72,    74</quad4>
			<quad4 id="7">    15,    13,    74,    76</quad4>
			<quad4 id="8">    17,    15,    76,    78</quad4>
			<quad4 id="9">    19,    17,    78,    80</quad4>
			<quad4 id="10">    21,    19,    80,    82</quad4>
			<quad4 id="11">    23,    21,    82,    84</quad4>
			<quad4 id="12">    25,    23,    84,    86</quad4>
			<quad4 id="13">    27,    25,    86,    88</quad4>
			<quad4 id="14">    29,    27,    88,    90</quad4>
			<quad4 id="15">    31,    29,    90,    92</quad4>
			<quad4 id="16">    33,    31,    92,    94</quad4>
			<quad4 id="17">    35,    33,    94,    96</quad4>
			<quad4 id="18">    37,    35,    96,    98</quad4>
			<quad4 id="19">    39,    37,    98,   100</quad4>
			<quad4 id="20">    41,    39,   100,   102</quad4>
<!-- ... 10 like lines cut -->
		</Surface>
	</Geometry>
	<Boundary>
		<fix bc="y">
			<node id="1"/>
			<node id="62"/>
		</fix>
		<fix bc="x">
			<node id="1"/>
			<node id="62"/>
		</fix>
		<fix bc="y">
			<node id="1"/>
			<node id="2"/>
			<node id="4"/>
			<node id="6"/>
			<node id="8"/>
			<node id="10"/>
			<node id="12"/>
			<node id="14"/>
			<node id="16"/>
			<node id="18"/>
			<node id="20"/>
			<node id="22"/>
			<node id="24"/>
			<node id="26"/>
			<node id="28"/>
			<node id="30"/>
			<node id="32"/>
			<node id="34"/>
			<node id="36"/>
			<node id="38"/>
<!-- ... 42 like lines cut -->
		</fix>
		<fix bc="z">
			<node id="1"/>
			<node id="2"/>
			<node id="3"/>
			<node id="4"/>
			<node id="5"/>
			<node id="6"/>
			<node id="7"/>
			<node id="8"/>
			<node id="9"/>
			<node id="10"/>
			<node id="11"/>
			<node id="12"/>
			<node id="13"/>
			<node id="14"/>
			<node id="15"/>
			<node id="16"/>
			<node id="17"/>
			<node id="18"/>
			<node id="19"/>
			<node id="20"/>
<!-- ... 41 like lines cut -->
		</fix>
		<fix bc="p">
			<node id="60"/>
			<node id="61"/>
			<node id="121"/>
			<node id="122"/>
		</fix>
		<prescribe bc="z" lc="2">
			<node id="62">1</node>
			<node id="63">1</node>
			<node id="64">1</node>
			<node id="65">1</node>
			<node id="66">1</node>
			<node id="67">1</node>
			<node id="68">1</node>
			<node id="69">1</node>
			<node id="70">1</node>
			<node id="71">1</node>
			<node id="72">1</node>
			<node id="73">1</node>
			<node id="74">1</node>
			<node id="75">1</node>
			<node id="76">1</node>
			<node id="77">1</node>
			<node id="78">1</node>
			<node id="79">1</node>
			<node id="80">1</node>
			<node id="81">1</node>
<!-- ... 41 like lines cut -->
		</prescribe>
	</Boundary>
	<Contact>
		<contact type="sliding-tension-compression">
			<laugon>0</laugon>
			<tolerance>0.2</tolerance>
			<gaptol>0</gaptol>
			<penalty>10000</penalty>
			<auto_penalty>1</auto_penalty>
			<two_pass>0</two_pass>
			<search_tol>0.01</search_tol>
			<symmetric_stiffness>0</symmetric_stiffness>
			<search_radius>1</search_radius>
			<seg_up>0</seg_up>
			<tension>1</tension>
			<minaug>0</minaug>
			<maxaug>10</maxaug>
			<surface type="master" set="Surface01"/>
			<surface type="slave" set="Surface02"/>
		</contact>
	</Contact>
	<Constraints>
		<rigid_body mat="2">
			<fixed bc="x"/>
			<fixed bc="y"/>
			<fixed bc="z"/>
			<fixed bc="Rx"/>
			<fixed bc="Ry"/>
			<fixed bc="Rz"/>
		</rigid_body>
	</Constraints>
	<LoadData>
		<loadcurve id="1" type="step">
			<loadpoint>0,0</loadpoint>
			<loadpoint>1,0.1</loadpoint>
			<loadpoint>10,1</loadpoint>
			<loadpoint>100,10</loadpoint>
			<loadpoint>1000,100</loadpoint>
			<loadpoint>10000,1000</loadpoint>
		</loadcurve>
		<loadcurve id="2" type="step">
			<loadpoint>0,0</loadpoint>
			<loadpoint>1,-0.2</loadpoint>
		</loadcurve>
	</LoadData>
	<Output>
		<plotfile type="febio">
			<var type="contact gap"/>
			<var type="contact pressure"/>
			<var type="displacement"/>
			<var type="effective fluid pressure"/>
			<var type="fluid flux"/>
			<var type="relative volume"/>
			<var type="stress"/>
		</plotfile>
		<logfile>
			<element_data data="wx">30</element_data>
		</logfile>
	</Output>
</febio_spec>
