<?xml version="1.0" encoding="ISO-8859-1"?>
<!--
Problem Description:
	Cylinder with Referentially Trans Iso Permeability material undergoes pressure change and twist
Main Features:
	Biphasic
Secondary Features:
	
Materials:
	Referentially Transversely Isotropic Permeability
	neo-Hookean
Degrees of Freedom: 16095
Results:
	Steps Completed: 10
	Equilibrium Iterations: 76
	Right Hand Evaluations: 103
	Siffness Reformations: 76
	Other:
		The x-component of the fluid flux for element 3188 is 0.1961 at time t=2.
Comments:
	
-->
<febio_spec version="2.0">
	<Module type="biphasic"/>
	<Control>
		<time_steps>20</time_steps>
		<step_size>0.1</step_size>
		<max_refs>15</max_refs>
		<max_ups>0</max_ups>
		<dtol>0.001</dtol>
		<etol>0.01</etol>
		<rtol>0</rtol>
		<ptol>0.01</ptol>
		<lstol>0.9</lstol>
		<time_stepper>
			<dtmin>0.01</dtmin>
			<dtmax lc="1"></dtmax>
			<max_retries>5</max_retries>
			<opt_iter>10</opt_iter>
		</time_stepper>
		<analysis type="steady-state"/>
		<symmetric_biphasic>0</symmetric_biphasic>
	</Control>
	<Globals>
		<Constants>
			<T>0</T>
			<R>0</R>
			<Fc>0</Fc>
		</Constants>
	</Globals>
	<Material>
		<material id="1" name="Biphasic Material" type="biphasic">
			<phi0>0.2</phi0>
			<fluid_density>1</fluid_density>
			<solid type="neo-Hookean">
				<density>1</density>
				<E>1</E>
				<v>0</v>
			</solid>
			<permeability type="perm-ref-trans-iso">
				<perm0>200</perm0>
				<perm1T>10</perm1T>
				<perm1A>100</perm1A>
				<perm2T>10</perm2T>
				<perm2A>100</perm2A>
				<M0>1</M0>
				<MT>1.5</MT>
				<MA>0.5</MA>
				<alpha0>1</alpha0>
				<alphaA>0.5</alphaA>
				<alphaT>2</alphaT>
			</permeability>
		</material>
		<material id="2" name="Rotating Face" type="rigid body">
			<density>1</density>
			<center_of_mass>0,0,25</center_of_mass>
		</material>
	</Material>
	<Geometry>
		<Nodes>
			<node id="1">-1.7677670e+000,-1.7677670e+000, 0.0000000e+000</node>
			<node id="2"> 0.0000000e+000,-1.7677670e+000, 0.0000000e+000</node>
			<node id="3"> 1.7677670e+000,-1.7677670e+000, 0.0000000e+000</node>
			<node id="4">-1.7677670e+000, 0.0000000e+000, 0.0000000e+000</node>
			<node id="5"> 0.0000000e+000, 0.0000000e+000, 0.0000000e+000</node>
			<node id="6"> 1.7677670e+000, 0.0000000e+000, 0.0000000e+000</node>
			<node id="7">-1.7677670e+000, 1.7677670e+000, 0.0000000e+000</node>
			<node id="8"> 0.0000000e+000, 1.7677670e+000, 0.0000000e+000</node>
			<node id="9"> 1.7677670e+000, 1.7677670e+000, 0.0000000e+000</node>
			<node id="10">-1.7677670e+000,-1.7677670e+000, 2.5000000e+001</node>
			<node id="11"> 0.0000000e+000,-1.7677670e+000, 2.5000000e+001</node>
			<node id="12"> 1.7677670e+000,-1.7677670e+000, 2.5000000e+001</node>
			<node id="13">-1.7677670e+000, 0.0000000e+000, 2.5000000e+001</node>
			<node id="14"> 0.0000000e+000, 0.0000000e+000, 2.5000000e+001</node>
			<node id="15"> 1.7677670e+000, 0.0000000e+000, 2.5000000e+001</node>
			<node id="16">-1.7677670e+000, 1.7677670e+000, 2.5000000e+001</node>
			<node id="17"> 0.0000000e+000, 1.7677670e+000, 2.5000000e+001</node>
			<node id="18"> 1.7677670e+000, 1.7677670e+000, 2.5000000e+001</node>
			<node id="19">-3.5355339e+000,-3.5355339e+000, 0.0000000e+000</node>
			<node id="20"> 0.0000000e+000,-5.0000000e+000, 0.0000000e+000</node>
<!-- ... 4369 like lines cut -->
		</Nodes>
		<Elements type="hex8" mat="1" elset="Part1">
			<elem id="1">     1,    35,   760,   131,    78,   526,  2338,   699</elem>
			<elem id="2">    35,    36,   761,   760,   526,   527,  2339,  2338</elem>
			<elem id="3">    36,    37,   762,   761,   527,   528,  2340,  2339</elem>
			<elem id="4">    37,     2,    79,   762,   528,    38,   583,  2340</elem>
			<elem id="5">   131,   760,   757,   130,   699,  2338,  2341,   698</elem>
			<elem id="6">   760,   761,   758,   757,  2338,  2339,  2342,  2341</elem>
			<elem id="7">   761,   762,   759,   758,  2339,  2340,  2343,  2342</elem>
			<elem id="8">   762,    79,    80,   759,  2340,   583,   584,  2343</elem>
			<elem id="9">   130,   757,   754,   129,   698,  2341,  2344,   697</elem>
			<elem id="10">   757,   758,   755,   754,  2341,  2342,  2345,  2344</elem>
			<elem id="11">   758,   759,   756,   755,  2342,  2343,  2346,  2345</elem>
			<elem id="12">   759,    80,    81,   756,  2343,   584,   585,  2346</elem>
			<elem id="13">   129,   754,   106,     4,   697,  2344,   642,   107</elem>
			<elem id="14">   754,   755,   105,   106,  2344,  2345,   641,   642</elem>
			<elem id="15">   755,   756,   104,   105,  2345,  2346,   640,   641</elem>
			<elem id="16">   756,    81,     5,   104,  2346,   585,    82,   640</elem>
			<elem id="17">    78,   526,  2338,   699,    77,   529,  2347,   702</elem>
			<elem id="18">   526,   527,  2339,  2338,   529,   530,  2348,  2347</elem>
			<elem id="19">   527,   528,  2340,  2339,   530,   531,  2349,  2348</elem>
			<elem id="20">   528,    38,   583,  2340,   531,    39,   586,  2349</elem>
<!-- ... 3820 like lines cut -->
		</Elements>
		<NodeSet name="FixedNodeset01">
			<node id="1"/>
			<node id="2"/>
			<node id="3"/>
			<node id="4"/>
			<node id="5"/>
			<node id="6"/>
			<node id="7"/>
			<node id="8"/>
			<node id="9"/>
			<node id="19"/>
			<node id="20"/>
			<node id="21"/>
			<node id="22"/>
			<node id="23"/>
			<node id="24"/>
			<node id="25"/>
			<node id="26"/>
			<node id="35"/>
			<node id="36"/>
			<node id="37"/>
<!-- ... 189 like lines cut -->
		</NodeSet>
		<NodeSet name="FixedNodeset02">
			<node id="1"/>
			<node id="2"/>
			<node id="3"/>
			<node id="4"/>
			<node id="5"/>
			<node id="6"/>
			<node id="7"/>
			<node id="8"/>
			<node id="9"/>
			<node id="19"/>
			<node id="20"/>
			<node id="21"/>
			<node id="22"/>
			<node id="23"/>
			<node id="24"/>
			<node id="25"/>
			<node id="26"/>
			<node id="35"/>
			<node id="36"/>
			<node id="37"/>
<!-- ... 189 like lines cut -->
		</NodeSet>
		<NodeSet name="FixedNodeset03">
			<node id="1"/>
			<node id="2"/>
			<node id="3"/>
			<node id="4"/>
			<node id="5"/>
			<node id="6"/>
			<node id="7"/>
			<node id="8"/>
			<node id="9"/>
			<node id="19"/>
			<node id="20"/>
			<node id="21"/>
			<node id="22"/>
			<node id="23"/>
			<node id="24"/>
			<node id="25"/>
			<node id="26"/>
			<node id="35"/>
			<node id="36"/>
			<node id="37"/>
<!-- ... 189 like lines cut -->
		</NodeSet>
		<NodeSet name="FixedNodeset04">
			<node id="10"/>
			<node id="11"/>
			<node id="12"/>
			<node id="13"/>
			<node id="14"/>
			<node id="15"/>
			<node id="16"/>
			<node id="17"/>
			<node id="18"/>
			<node id="27"/>
			<node id="28"/>
			<node id="29"/>
			<node id="30"/>
			<node id="31"/>
			<node id="32"/>
			<node id="33"/>
			<node id="34"/>
			<node id="57"/>
			<node id="58"/>
			<node id="59"/>
<!-- ... 189 like lines cut -->
		</NodeSet>
		<NodeSet name="Nodeset02">
			<node id="1"/>
			<node id="2"/>
			<node id="3"/>
			<node id="4"/>
			<node id="5"/>
			<node id="6"/>
			<node id="7"/>
			<node id="8"/>
			<node id="9"/>
			<node id="19"/>
			<node id="20"/>
			<node id="21"/>
			<node id="22"/>
			<node id="23"/>
			<node id="24"/>
			<node id="25"/>
			<node id="26"/>
			<node id="35"/>
			<node id="36"/>
			<node id="37"/>
<!-- ... 189 like lines cut -->
		</NodeSet>
	</Geometry>
	<Boundary>
		<fix bc="z" set="FixedNodeset01"/>
		<fix bc="y" set="FixedNodeset02"/>
		<fix bc="x" set="FixedNodeset03"/>
		<fix bc="p" set="FixedNodeset04"/>
		<prescribe bc="p" lc="2" set="Nodeset02">1</prescribe>
	</Boundary>
	<Contact>
		<contact type="rigid" name="RigidInterface02">
			<node id="10" rb="2"></node>
			<node id="11" rb="2"></node>
			<node id="12" rb="2"></node>
			<node id="13" rb="2"></node>
			<node id="14" rb="2"></node>
			<node id="15" rb="2"></node>
			<node id="16" rb="2"></node>
			<node id="17" rb="2"></node>
			<node id="18" rb="2"></node>
			<node id="27" rb="2"></node>
			<node id="28" rb="2"></node>
			<node id="29" rb="2"></node>
			<node id="30" rb="2"></node>
			<node id="31" rb="2"></node>
			<node id="32" rb="2"></node>
			<node id="33" rb="2"></node>
			<node id="34" rb="2"></node>
			<node id="57" rb="2"></node>
			<node id="58" rb="2"></node>
			<node id="59" rb="2"></node>
<!-- ... 189 like lines cut -->
		</contact>
	</Contact>
	<Constraints>
		<rigid_body mat="2">
			<fixed bc="x"/>
			<fixed bc="y"/>
			<fixed bc="Rx"/>
			<fixed bc="Ry"/>
		</rigid_body>
		<rigid_body mat="2">
			<prescribed bc="Rz" lc="3">1</prescribed>
		</rigid_body>
	</Constraints>
	<LoadData>
		<loadcurve id="1" type="step">
			<point>0,0</point>
			<point>1,1</point>
			<point>2,0.25</point>
		</loadcurve>
		<loadcurve id="2" type="smooth">
			<point>0,0</point>
			<point>1,0.1</point>
		</loadcurve>
		<loadcurve id="3" type="linear">
			<point>0,0</point>
			<point>1,0</point>
			<point>2,3.14159</point>
		</loadcurve>
	</LoadData>
	<Output>
		<plotfile type="febio">
			<var type="displacement"/>
			<var type="effective fluid pressure"/>
			<var type="fluid flux"/>
			<var type="relative volume"/>
			<var type="stress"/>
		</plotfile>
		<logfile>
			<element_data data="wx">3188</element_data>
		</logfile>
	</Output>
</febio_spec>
