<?xml version="1.0" encoding="ISO-8859-1"?>
<!--
Problem Description:
	2D biphasic contact between a semi-cylindrical block and a rectangular
	block under displacement control.
Main Features:
	Permeability
Secondary Features:
	Must point curve
Materials:
	Biphasic
	Holmes-Mow
Degrees of Freedom: 5508
Results:
	Steps Completed: 39
	Equilibrium Iterations: 330
	Right Hand Evaluations: 613
	Siffness Reformations: 332
	Other:
		The maximum total fluid flux is 1.5e-3 at time t = 20.
Comments:
	
-->
<febio_spec version="2.0">
	<Module type="biphasic"/>
	<Control>
		<time_steps>1000</time_steps>
		<step_size>1</step_size>
		<max_refs>25</max_refs>
		<max_ups>0</max_ups>
		<dtol>0.001</dtol>
		<etol>0.01</etol>
		<rtol>0</rtol>
		<ptol>0.01</ptol>
		<lstol>0.9</lstol>
		<time_stepper>
			<dtmin>0.1</dtmin>
			<dtmax lc="1"></dtmax>
			<max_retries>5</max_retries>
			<opt_iter>10</opt_iter>
		</time_stepper>
		<symmetric_biphasic>0</symmetric_biphasic>
	</Control>
	<Globals>
		<Constants>
			<T>0</T>
			<R>0</R>
			<Fc>0</Fc>
		</Constants>
	</Globals>
	<Material>
		<material id="1" name="Biphasic material" type="biphasic">
			<phi0>0.2</phi0>
			<solid type="Holmes-Mow">
				<density>1</density>
				<E>1</E>
				<v>0</v>
				<beta>2</beta>
			</solid>
			<permeability type="perm-Holmes-Mow">
				<perm>0.001</perm>
				<M>2</M>
				<alpha>0</alpha>
			</permeability>
		</material>
	</Material>
	<Geometry>
		<Nodes>
			<node id="1"> 0.0000000e+000,-1.0000000e+000, 0.0000000e+000</node>
			<node id="2"> 0.0000000e+000,-1.0000000e+000, 1.0000000e+000</node>
			<node id="3"> 0.0000000e+000,-9.8546289e-001, 0.0000000e+000</node>
			<node id="4"> 0.0000000e+000,-9.8546289e-001, 1.0000000e+000</node>
			<node id="5"> 0.0000000e+000,-9.6511093e-001, 0.0000000e+000</node>
			<node id="6"> 0.0000000e+000,-9.6511093e-001, 1.0000000e+000</node>
			<node id="7"> 0.0000000e+000,-9.3661819e-001, 0.0000000e+000</node>
			<node id="8"> 0.0000000e+000,-9.3661819e-001, 1.0000000e+000</node>
			<node id="9"> 0.0000000e+000,-8.9672835e-001, 0.0000000e+000</node>
			<node id="10"> 0.0000000e+000,-8.9672835e-001, 1.0000000e+000</node>
			<node id="11"> 0.0000000e+000,-8.4088258e-001, 0.0000000e+000</node>
			<node id="12"> 0.0000000e+000,-8.4088258e-001, 1.0000000e+000</node>
			<node id="13"> 0.0000000e+000,-7.6269850e-001, 0.0000000e+000</node>
			<node id="14"> 0.0000000e+000,-7.6269850e-001, 1.0000000e+000</node>
			<node id="15"> 0.0000000e+000,-6.5324079e-001, 0.0000000e+000</node>
			<node id="16"> 0.0000000e+000,-6.5324079e-001, 1.0000000e+000</node>
			<node id="17"> 0.0000000e+000,-5.0000000e-001, 0.0000000e+000</node>
			<node id="18"> 0.0000000e+000,-5.0000000e-001, 1.0000000e+000</node>
			<node id="19"> 0.0000000e+000,-3.4675921e-001, 0.0000000e+000</node>
			<node id="20"> 0.0000000e+000,-3.4675921e-001, 1.0000000e+000</node>
<!-- ... 1904 like lines cut -->
		</Nodes>
		<Elements type="hex8" mat="1" elset="Part3">
			<elem id="1">     1,    35,    37,     3,     2,    36,    38,     4</elem>
			<elem id="2">     3,    37,    39,     5,     4,    38,    40,     6</elem>
			<elem id="3">     5,    39,    41,     7,     6,    40,    42,     8</elem>
			<elem id="4">     7,    41,    43,     9,     8,    42,    44,    10</elem>
			<elem id="5">     9,    43,    45,    11,    10,    44,    46,    12</elem>
			<elem id="6">    11,    45,    47,    13,    12,    46,    48,    14</elem>
			<elem id="7">    13,    47,    49,    15,    14,    48,    50,    16</elem>
			<elem id="8">    15,    49,    51,    17,    16,    50,    52,    18</elem>
			<elem id="9">    17,    51,    53,    19,    18,    52,    54,    20</elem>
			<elem id="10">    19,    53,    55,    21,    20,    54,    56,    22</elem>
			<elem id="11">    21,    55,    57,    23,    22,    56,    58,    24</elem>
			<elem id="12">    23,    57,    59,    25,    24,    58,    60,    26</elem>
			<elem id="13">    25,    59,    61,    27,    26,    60,    62,    28</elem>
			<elem id="14">    27,    61,    63,    29,    28,    62,    64,    30</elem>
			<elem id="15">    29,    63,    65,    31,    30,    64,    66,    32</elem>
			<elem id="16">    31,    65,    67,    33,    32,    66,    68,    34</elem>
			<elem id="17">    35,    69,    71,    37,    36,    70,    72,    38</elem>
			<elem id="18">    37,    71,    73,    39,    38,    72,    74,    40</elem>
			<elem id="19">    39,    73,    75,    41,    40,    74,    76,    42</elem>
			<elem id="20">    41,    75,    77,    43,    42,    76,    78,    44</elem>
<!-- ... 852 like lines cut -->
		</Elements>
		<Elements type="penta6" mat="1" elset="Part3">
			<elem id="873">  1123,  1125,  1126,  1524,  1526,  1527</elem>
			<elem id="874">  1123,  1126,  1127,  1524,  1527,  1528</elem>
			<elem id="875">  1123,  1127,  1128,  1524,  1528,  1529</elem>
			<elem id="876">  1123,  1128,  1129,  1524,  1529,  1530</elem>
			<elem id="877">  1123,  1129,  1130,  1524,  1530,  1531</elem>
			<elem id="878">  1123,  1130,  1131,  1524,  1531,  1532</elem>
			<elem id="879">  1123,  1131,  1132,  1524,  1532,  1533</elem>
			<elem id="880">  1123,  1132,  1133,  1524,  1533,  1534</elem>
			<elem id="881">  1123,  1133,  1134,  1524,  1534,  1535</elem>
			<elem id="882">  1123,  1134,  1135,  1524,  1535,  1536</elem>
			<elem id="883">  1123,  1135,  1136,  1524,  1536,  1537</elem>
			<elem id="884">  1123,  1136,  1137,  1524,  1537,  1538</elem>
			<elem id="885">  1123,  1137,  1138,  1524,  1538,  1539</elem>
			<elem id="886">  1123,  1138,  1139,  1524,  1539,  1540</elem>
			<elem id="887">  1123,  1139,  1140,  1524,  1540,  1541</elem>
			<elem id="888">  1123,  1140,  1141,  1524,  1541,  1542</elem>
			<elem id="889">  1123,  1141,  1142,  1524,  1542,  1543</elem>
			<elem id="890">  1123,  1142,  1143,  1524,  1543,  1544</elem>
			<elem id="891">  1123,  1143,  1144,  1524,  1544,  1545</elem>
			<elem id="892">  1123,  1144,  1145,  1524,  1545,  1546</elem>
<!-- ... 4 like lines cut -->
		</Elements>
		<Surface name="MasterSurface01">
			<quad4 id="1">  1121,  1087,  1088,  1122</quad4>
			<quad4 id="2">  1087,  1053,  1054,  1088</quad4>
			<quad4 id="3">  1053,  1019,  1020,  1054</quad4>
			<quad4 id="4">  1019,   985,   986,  1020</quad4>
			<quad4 id="5">   985,   951,   952,   986</quad4>
			<quad4 id="6">   951,   917,   918,   952</quad4>
			<quad4 id="7">   917,   883,   884,   918</quad4>
			<quad4 id="8">   883,   849,   850,   884</quad4>
			<quad4 id="9">   849,   815,   816,   850</quad4>
			<quad4 id="10">   815,   781,   782,   816</quad4>
			<quad4 id="11">   781,   747,   748,   782</quad4>
			<quad4 id="12">   747,   713,   714,   748</quad4>
			<quad4 id="13">   713,   679,   680,   714</quad4>
			<quad4 id="14">   679,   645,   646,   680</quad4>
			<quad4 id="15">   645,   611,   612,   646</quad4>
			<quad4 id="16">   611,   577,   578,   612</quad4>
			<quad4 id="17">   577,   543,   544,   578</quad4>
			<quad4 id="18">   543,   509,   510,   544</quad4>
			<quad4 id="19">   509,   475,   476,   510</quad4>
			<quad4 id="20">   475,   441,   442,   476</quad4>
<!-- ... 12 like lines cut -->
		</Surface>
		<Surface name="SlaveSurface01">
			<quad4 id="1">  1500,  1501,  1902,  1901</quad4>
			<quad4 id="2">  1501,  1502,  1903,  1902</quad4>
			<quad4 id="3">  1502,  1503,  1904,  1903</quad4>
			<quad4 id="4">  1503,  1504,  1905,  1904</quad4>
			<quad4 id="5">  1504,  1505,  1906,  1905</quad4>
			<quad4 id="6">  1505,  1506,  1907,  1906</quad4>
			<quad4 id="7">  1506,  1507,  1908,  1907</quad4>
			<quad4 id="8">  1507,  1508,  1909,  1908</quad4>
			<quad4 id="9">  1508,  1509,  1910,  1909</quad4>
			<quad4 id="10">  1509,  1510,  1911,  1910</quad4>
			<quad4 id="11">  1510,  1511,  1912,  1911</quad4>
			<quad4 id="12">  1511,  1512,  1913,  1912</quad4>
			<quad4 id="13">  1512,  1513,  1914,  1913</quad4>
			<quad4 id="14">  1513,  1514,  1915,  1914</quad4>
			<quad4 id="15">  1514,  1515,  1916,  1915</quad4>
			<quad4 id="16">  1515,  1516,  1917,  1916</quad4>
			<quad4 id="17">  1516,  1517,  1918,  1917</quad4>
			<quad4 id="18">  1517,  1518,  1919,  1918</quad4>
			<quad4 id="19">  1518,  1519,  1920,  1919</quad4>
			<quad4 id="20">  1519,  1520,  1921,  1920</quad4>
<!-- ... 4 like lines cut -->
		</Surface>
	</Geometry>
	<Boundary>
		<fix bc="z">
			<node id="1"/>
			<node id="2"/>
			<node id="3"/>
			<node id="4"/>
			<node id="5"/>
			<node id="6"/>
			<node id="7"/>
			<node id="8"/>
			<node id="9"/>
			<node id="10"/>
			<node id="11"/>
			<node id="12"/>
			<node id="13"/>
			<node id="14"/>
			<node id="15"/>
			<node id="16"/>
			<node id="17"/>
			<node id="18"/>
			<node id="19"/>
			<node id="20"/>
<!-- ... 1904 like lines cut -->
		</fix>
		<fix bc="x">
			<node id="1"/>
			<node id="2"/>
			<node id="3"/>
			<node id="4"/>
			<node id="5"/>
			<node id="6"/>
			<node id="7"/>
			<node id="8"/>
			<node id="9"/>
			<node id="10"/>
			<node id="11"/>
			<node id="12"/>
			<node id="13"/>
			<node id="14"/>
			<node id="15"/>
			<node id="16"/>
			<node id="17"/>
			<node id="18"/>
			<node id="19"/>
			<node id="20"/>
<!-- ... 144 like lines cut -->
		</fix>
		<fix bc="y">
			<node id="1"/>
			<node id="2"/>
			<node id="35"/>
			<node id="36"/>
			<node id="69"/>
			<node id="70"/>
			<node id="103"/>
			<node id="104"/>
			<node id="137"/>
			<node id="138"/>
			<node id="171"/>
			<node id="172"/>
			<node id="205"/>
			<node id="206"/>
			<node id="239"/>
			<node id="240"/>
			<node id="273"/>
			<node id="274"/>
			<node id="307"/>
			<node id="308"/>
<!-- ... 46 like lines cut -->
		</fix>
		<fix bc="p">
			<node id="1089"/>
			<node id="1090"/>
			<node id="1091"/>
			<node id="1092"/>
			<node id="1093"/>
			<node id="1094"/>
			<node id="1095"/>
			<node id="1096"/>
			<node id="1097"/>
			<node id="1098"/>
			<node id="1099"/>
			<node id="1100"/>
			<node id="1101"/>
			<node id="1102"/>
			<node id="1103"/>
			<node id="1104"/>
			<node id="1105"/>
			<node id="1106"/>
			<node id="1107"/>
			<node id="1108"/>
<!-- ... 14 like lines cut -->
		</fix>
		<prescribe bc="y" lc="2">
			<node id="1123">1</node>
			<node id="1124">1</node>
			<node id="1149">1</node>
			<node id="1174">1</node>
			<node id="1199">1</node>
			<node id="1224">1</node>
			<node id="1249">1</node>
			<node id="1274">1</node>
			<node id="1299">1</node>
			<node id="1324">1</node>
			<node id="1349">1</node>
			<node id="1374">1</node>
			<node id="1399">1</node>
			<node id="1424">1</node>
			<node id="1449">1</node>
			<node id="1474">1</node>
			<node id="1499">1</node>
			<node id="1524">1</node>
			<node id="1525">1</node>
			<node id="1550">1</node>
<!-- ... 14 like lines cut -->
		</prescribe>
	</Boundary>
	<Contact>
		<contact type="sliding2">
			<laugon>1</laugon>
			<tolerance>0.2</tolerance>
			<penalty>1</penalty>
			<two_pass>1</two_pass>
			<auto_penalty>1</auto_penalty>
			<pressure_penalty>1</pressure_penalty>
			<symmetric_stiffness>0</symmetric_stiffness>
			<search_radius>1</search_radius>
			<surface type="master" set="MasterSurface01"/>
			<surface type="slave" set="SlaveSurface01"/>
		</contact>
	</Contact>
	<LoadData>
		<loadcurve id="1" type="step">
			<loadpoint>0,0</loadpoint>
			<loadpoint>20,1</loadpoint>
			<loadpoint>1000,100</loadpoint>
		</loadcurve>
		<loadcurve id="2" type="smooth">
			<loadpoint>0,0</loadpoint>
			<loadpoint>10,-0.5</loadpoint>
		</loadcurve>
	</LoadData>
	<Output>
		<plotfile type="febio">
			<var type="contact gap"/>
			<var type="contact pressure"/>
			<var type="displacement"/>
			<var type="effective fluid pressure"/>
			<var type="fluid flux"/>
			<var type="relative volume"/>
			<var type="stress"/>
		</plotfile>
		<logfile>
			<element_data data="p">1</element_data>
		</logfile>
	</Output>
</febio_spec>
