<?xml version="1.0" encoding="ISO-8859-1"?>
<!--
Problem Description:
	Osmotic loading of spherical gel, using externally prescribed solute concentration.
	Units: length = mm, force = N, time = s, mole = nanomol; stress = MPa, concentration = mM.
Main Features:
	Biphasic with Solute
Secondary Features:
	
Materials:
	biphasic-solute
Degrees of Freedom: 6116
Results:
	Steps Completed: 86
	Equilibrium Iterations: 295
	Right Hand Evaluations: 387
	Siffness Reformations: 295
	Other:
		The weighted average of the relative volume has a minimum value of 0.715 at t=117.8s
Comments:
	
-->
<febio_spec version="2.0">
	<Module type="solute"/>
	<Control>
		<title>Spherical Gel - Osmotic Loading</title>
		<time_steps>36000</time_steps>
		<step_size>0.1</step_size>
		<max_refs>25</max_refs>
		<max_ups>0</max_ups>
		<dtol>0.001</dtol>
		<etol>0.01</etol>
		<rtol>0</rtol>
		<ptol>0.01</ptol>
		<ctol>0.01</ctol>
		<lstol>0.9</lstol>
		<time_stepper>
			<dtmin>0.01</dtmin>
			<dtmax lc="1"></dtmax>
			<max_retries>5</max_retries>
			<opt_iter>20</opt_iter>
		</time_stepper>
		<symmetric_biphasic>0</symmetric_biphasic>
	</Control>
	<Globals>
		<Constants>
			<T>298</T>
			<R>8.314e-006</R>
			<Fc>0</Fc>
		</Constants>
		<Solutes>
			<solute id="1" name="solute">
				<charge_number>0</charge_number>
				<molar_mass>1</molar_mass>
				<density>1</density>
			</solute>
		</Solutes>
	</Globals>
	<Material>
		<material id="1" name="Biphasic with solute" type="biphasic-solute">
			<phi0>0.04</phi0>
			<solid type="neo-Hookean">
				<density>1</density>
				<E>0.006</E>
				<v>0</v>
			</solid>
			<permeability type="perm-Holmes-Mow">
				<perm>0.08</perm>
				<M>0</M>
				<alpha>0</alpha>
			</permeability>
			<osmotic_coefficient type="osm-coef-const">
				<osmcoef>1</osmcoef>
			</osmotic_coefficient>
			<solute sol="1">
				<diffusivity name="Diffusivity" type="diff-const-iso">
					<free_diff>0.00039</free_diff>
					<diff>0.000275</diff>
				</diffusivity>
				<solubility name="Solubility" type="solub-const">
					<solub>1</solub>
				</solubility>
			</solute>
		</material>
	</Material>
	<Geometry>
		<Nodes>
			<node id="1"> 6.0000000e-004, 0.0000000e+000, 0.0000000e+000</node>
			<node id="2"> 0.0000000e+000, 6.0000000e-004, 0.0000000e+000</node>
			<node id="3"> 4.2426407e-004, 4.2426407e-004, 0.0000000e+000</node>
			<node id="4"> 0.0000000e+000, 0.0000000e+000, 6.0000000e-004</node>
			<node id="5"> 4.2426407e-004, 0.0000000e+000, 4.2426407e-004</node>
			<node id="6"> 0.0000000e+000, 4.2426407e-004, 4.2426407e-004</node>
			<node id="7"> 3.4641016e-004, 3.4641016e-004, 3.4641016e-004</node>
			<node id="8"> 6.0000000e-001, 0.0000000e+000, 0.0000000e+000</node>
			<node id="9"> 0.0000000e+000, 6.0000000e-001, 0.0000000e+000</node>
			<node id="10"> 4.2426407e-001, 4.2426407e-001, 0.0000000e+000</node>
			<node id="11"> 0.0000000e+000, 0.0000000e+000, 6.0000000e-001</node>
			<node id="12"> 4.2426407e-001, 0.0000000e+000, 4.2426407e-001</node>
			<node id="13"> 0.0000000e+000, 4.2426407e-001, 4.2426407e-001</node>
			<node id="14"> 3.4641016e-001, 3.4641016e-001, 3.4641016e-001</node>
			<node id="15"> 1.0457565e-001, 0.0000000e+000, 0.0000000e+000</node>
			<node id="16"> 1.9087543e-001, 0.0000000e+000, 0.0000000e+000</node>
			<node id="17"> 2.6250425e-001, 0.0000000e+000, 0.0000000e+000</node>
			<node id="18"> 3.2195618e-001, 0.0000000e+000, 0.0000000e+000</node>
			<node id="19"> 3.7130127e-001, 0.0000000e+000, 0.0000000e+000</node>
			<node id="20"> 4.1225770e-001, 0.0000000e+000, 0.0000000e+000</node>
<!-- ... 1322 like lines cut -->
		</Nodes>
		<Elements type="hex8" mat="1" elset="Part1">
			<elem id="1">     1,    15,   209,    58,    64,   288,   803,   400</elem>
			<elem id="2">    15,    16,   210,   209,   288,   287,   804,   803</elem>
			<elem id="3">    16,    17,   211,   210,   287,   286,   805,   804</elem>
			<elem id="4">    17,    18,   212,   211,   286,   285,   806,   805</elem>
			<elem id="5">    18,    19,   213,   212,   285,   284,   807,   806</elem>
			<elem id="6">    19,    20,   214,   213,   284,   283,   808,   807</elem>
			<elem id="7">    20,    21,   215,   214,   283,   282,   809,   808</elem>
			<elem id="8">    21,    22,   216,   215,   282,   281,   810,   809</elem>
			<elem id="9">    22,    23,   217,   216,   281,   280,   811,   810</elem>
			<elem id="10">    23,    24,   218,   217,   280,   279,   812,   811</elem>
			<elem id="11">    24,    25,   219,   218,   279,   278,   813,   812</elem>
			<elem id="12">    25,    26,   220,   219,   278,   277,   814,   813</elem>
			<elem id="13">    26,    27,   221,   220,   277,   276,   815,   814</elem>
			<elem id="14">    27,    28,   222,   221,   276,   275,   816,   815</elem>
			<elem id="15">    28,    29,   223,   222,   275,   274,   817,   816</elem>
			<elem id="16">    29,    30,   224,   223,   274,   273,   818,   817</elem>
			<elem id="17">    30,    31,   225,   224,   273,   272,   819,   818</elem>
			<elem id="18">    31,    32,   226,   225,   272,   271,   820,   819</elem>
			<elem id="19">    32,    33,   227,   226,   271,   270,   821,   820</elem>
			<elem id="20">    33,    34,   228,   227,   270,   269,   822,   821</elem>
<!-- ... 988 like lines cut -->
		</Elements>
		<NodeSet name="FixedNodeset01">
			<node id="2"/>
			<node id="4"/>
			<node id="6"/>
			<node id="9"/>
			<node id="11"/>
			<node id="13"/>
			<node id="122"/>
			<node id="123"/>
			<node id="124"/>
			<node id="125"/>
			<node id="126"/>
			<node id="127"/>
			<node id="128"/>
			<node id="129"/>
			<node id="130"/>
			<node id="131"/>
			<node id="132"/>
			<node id="133"/>
			<node id="134"/>
			<node id="135"/>
<!-- ... 178 like lines cut -->
		</NodeSet>
		<NodeSet name="FixedNodeset02">
			<node id="1"/>
			<node id="4"/>
			<node id="5"/>
			<node id="8"/>
			<node id="11"/>
			<node id="12"/>
			<node id="15"/>
			<node id="16"/>
			<node id="17"/>
			<node id="18"/>
			<node id="19"/>
			<node id="20"/>
			<node id="21"/>
			<node id="22"/>
			<node id="23"/>
			<node id="24"/>
			<node id="25"/>
			<node id="26"/>
			<node id="27"/>
			<node id="28"/>
<!-- ... 178 like lines cut -->
		</NodeSet>
		<NodeSet name="FixedNodeset03">
			<node id="1"/>
			<node id="2"/>
			<node id="3"/>
			<node id="8"/>
			<node id="9"/>
			<node id="10"/>
			<node id="15"/>
			<node id="16"/>
			<node id="17"/>
			<node id="18"/>
			<node id="19"/>
			<node id="20"/>
			<node id="21"/>
			<node id="22"/>
			<node id="23"/>
			<node id="24"/>
			<node id="25"/>
			<node id="26"/>
			<node id="27"/>
			<node id="28"/>
<!-- ... 178 like lines cut -->
		</NodeSet>
		<NodeSet name="PrescribedBC01">
			<node id="8"/>
			<node id="9"/>
			<node id="10"/>
			<node id="11"/>
			<node id="12"/>
			<node id="13"/>
			<node id="14"/>
			<node id="35"/>
			<node id="36"/>
			<node id="37"/>
			<node id="61"/>
			<node id="62"/>
			<node id="63"/>
			<node id="87"/>
			<node id="88"/>
			<node id="89"/>
			<node id="90"/>
			<node id="91"/>
			<node id="92"/>
			<node id="119"/>
<!-- ... 41 like lines cut -->
		</NodeSet>
		<NodeSet name="PrescribedBC02">
			<node id="8"/>
			<node id="9"/>
			<node id="10"/>
			<node id="11"/>
			<node id="12"/>
			<node id="13"/>
			<node id="14"/>
			<node id="35"/>
			<node id="36"/>
			<node id="37"/>
			<node id="61"/>
			<node id="62"/>
			<node id="63"/>
			<node id="87"/>
			<node id="88"/>
			<node id="89"/>
			<node id="90"/>
			<node id="91"/>
			<node id="92"/>
			<node id="119"/>
<!-- ... 41 like lines cut -->
		</NodeSet>
	</Geometry>
	<Boundary>
		<fix bc="x" set="FixedNodeset01"/>
		<fix bc="y" set="FixedNodeset02"/>
		<fix bc="z" set="FixedNodeset03"/>
		<prescribe bc="p" lc="2" set="PrescribedBC01">-0.00247757</prescribe>
		<prescribe bc="c1" lc="3" set="PrescribedBC02">1</prescribe>
	</Boundary>
	<LoadData>
		<loadcurve id="1" type="linear" extend="extrapolate">
			<point>0,0</point>
			<point>1,0.2</point>
		</loadcurve>
		<loadcurve id="2" type="linear">
			<point>0,0</point>
			<point>1,6</point>
		</loadcurve>
		<loadcurve id="3" type="linear">
			<point>0,0</point>
			<point>1,6</point>
		</loadcurve>
	</LoadData>
	<Output>
		<plotfile type="febio">
			<var type="displacement"/>
			<var type="effective fluid pressure"/>
			<var type="fluid flux"/>
			<var type="fluid pressure"/>
			<var type="relative volume"/>
			<var type="stress"/>
		</plotfile>
	</Output>
</febio_spec>
