<?xml version="1.0" encoding="ISO-8859-1"?>
<!--
Problem Description:
	A rectangular strip consisting of hex20 elements is modeled with two
	continuous fiber distribution, each with a 2D von-Mises distribution
	density. The two fiber bundles lie in the x-y plane and are oriented at +45 deg. and -45
	deg. relative to the x-direction. The left and right ends of the strip are interfaced
	with rigid bodies. The left end is fixed and a displacement is prescribed on the
	right end, along x.
Main Features:
	Continuous fiber distribution
Secondary Features:
	Trapezoidal integration scheme
Materials:
	solid mixture
	neo-Hookean
	continuous fiber distribution
	fiber-exponential-power-law
	von-Mises-2d
	fibers-2d-trapezoidal
Degrees of Freedom: 1450
Results:
	Steps Completed: 15
	Equilibrium Iterations: 46
	Right Hand Evaluations: 61
	Siffness Reformations: 46
	Other:
		The x-reaction force at time 1 is -35.69
Comments:
	The fiber-exponential-power-law properties are selected to
	produce a highly nonlinear response for the reaction
	force. Compare to cf04.feb which uses 3D von-Mises
	distribution densities.
-->
<febio_spec version="2.0">
	<Module type="solid"/>
	<Control>
		<time_steps>100</time_steps>
		<step_size>0.01</step_size>
		<max_refs>25</max_refs>
		<max_ups>0</max_ups>
		<dtol>0.001</dtol>
		<etol>0.01</etol>
		<rtol>0</rtol>
		<lstol>0.9</lstol>
		<time_stepper>
			<dtmin>1e-005</dtmin>
			<dtmax>0.1</dtmax>
			<max_retries>10</max_retries>
			<opt_iter>10</opt_iter>
			<aggressiveness>1</aggressiveness>
		</time_stepper>
		<analysis type="static"/>
	</Control>
	<Globals>
		<Constants>
			<T>0</T>
			<R>0</R>
			<Fc>0</Fc>
		</Constants>
	</Globals>
	<Material>
		<material id="1" name="Material" type="solid mixture">
			<solid type="neo-Hookean">
				<density>1</density>
				<E>1</E>
				<v>0.3</v>
			</solid>
			<solid type="continuous fiber distribution">
				<mat_axis type="vector">
					<a>1,1,0</a>
					<d>-1,1,0</d>
				</mat_axis>
				<fibers type="fiber-exponential-power-law">
					<alpha>20</alpha>
					<beta>2</beta>
					<ksi>5</ksi>
					<mu>0</mu>
				</fibers>
				<distribution type="von-Mises-2d">
					<b>3</b>
				</distribution>
				<scheme type="fibers-2d-trapezoidal">
					<nth>31</nth>
				</scheme>
			</solid>
			<solid type="continuous fiber distribution">
				<mat_axis type="vector">
					<a>1,-1,0</a>
					<d>1,1,0</d>
				</mat_axis>
				<fibers type="fiber-exponential-power-law">
					<alpha>20</alpha>
					<beta>2</beta>
					<ksi>5</ksi>
					<mu>0</mu>
				</fibers>
				<distribution type="von-Mises-3d">
					<b>3</b>
				</distribution>
				<scheme type="fibers-3d-gkt">
					<nph>11</nph>
					<nth>31</nth>
				</scheme>
			</solid>
		</material>
		<material id="2" name="LeftPlaten" type="rigid body">
			<density>1</density>
			<center_of_mass>0,0,0</center_of_mass>
		</material>
		<material id="3" name="RightPlaten" type="rigid body">
			<density>1</density>
			<center_of_mass>0,0,0</center_of_mass>
		</material>
	</Material>
	<Geometry>
		<Nodes>
			<node id="1">-5.0000000e+000,-1.5000000e+000, 0.0000000e+000</node>
			<node id="2">-5.0000000e+000,-1.5000000e+000, 1.2500000e-001</node>
			<node id="3">-5.0000000e+000,-1.5000000e+000, 2.5000000e-001</node>
			<node id="4">-5.0000000e+000,-1.5000000e+000, 3.7500000e-001</node>
			<node id="5">-5.0000000e+000,-1.5000000e+000, 5.0000000e-001</node>
			<node id="6">-5.0000000e+000,-1.1250000e+000, 0.0000000e+000</node>
			<node id="7">-5.0000000e+000,-1.1250000e+000, 2.5000000e-001</node>
			<node id="8">-5.0000000e+000,-1.1250000e+000, 5.0000000e-001</node>
			<node id="9">-5.0000000e+000,-7.5000000e-001, 0.0000000e+000</node>
			<node id="10">-5.0000000e+000,-7.5000000e-001, 1.2500000e-001</node>
			<node id="11">-5.0000000e+000,-7.5000000e-001, 2.5000000e-001</node>
			<node id="12">-5.0000000e+000,-7.5000000e-001, 3.7500000e-001</node>
			<node id="13">-5.0000000e+000,-7.5000000e-001, 5.0000000e-001</node>
			<node id="14">-5.0000000e+000,-3.7500000e-001, 0.0000000e+000</node>
			<node id="15">-5.0000000e+000,-3.7500000e-001, 2.5000000e-001</node>
			<node id="16">-5.0000000e+000,-3.7500000e-001, 5.0000000e-001</node>
			<node id="17">-5.0000000e+000, 0.0000000e+000, 0.0000000e+000</node>
			<node id="18">-5.0000000e+000, 0.0000000e+000, 1.2500000e-001</node>
			<node id="19">-5.0000000e+000, 0.0000000e+000, 2.5000000e-001</node>
			<node id="20">-5.0000000e+000, 0.0000000e+000, 3.7500000e-001</node>
<!-- ... 537 like lines cut -->
		</Nodes>
		<Elements type="hex20" mat="1" elset="Part1">
			<elem id="1">     1,    53,    61,     9,     3,    55,    63,    11,    38,    58,    41,     6,    39,    59,    42,     7,     2,    54,    62,    10</elem>
			<elem id="2">     3,    55,    63,    11,     5,    57,    65,    13,    39,    59,    42,     7,    40,    60,    43,     8,     4,    56,    64,    12</elem>
			<elem id="3">     9,    61,    69,    17,    11,    63,    71,    19,    41,    66,    44,    14,    42,    67,    45,    15,    10,    62,    70,    18</elem>
			<elem id="4">    11,    63,    71,    19,    13,    65,    73,    21,    42,    67,    45,    15,    43,    68,    46,    16,    12,    64,    72,    20</elem>
			<elem id="5">    17,    69,    77,    25,    19,    71,    79,    27,    44,    74,    47,    22,    45,    75,    48,    23,    18,    70,    78,    26</elem>
			<elem id="6">    19,    71,    79,    27,    21,    73,    81,    29,    45,    75,    48,    23,    46,    76,    49,    24,    20,    72,    80,    28</elem>
			<elem id="7">    25,    77,    85,    33,    27,    79,    87,    35,    47,    82,    50,    30,    48,    83,    51,    31,    26,    78,    86,    34</elem>
			<elem id="8">    27,    79,    87,    35,    29,    81,    89,    37,    48,    83,    51,    31,    49,    84,    52,    32,    28,    80,    88,    36</elem>
			<elem id="9">    53,   105,   113,    61,    55,   107,   115,    63,    90,   110,    93,    58,    91,   111,    94,    59,    54,   106,   114,    62</elem>
			<elem id="10">    55,   107,   115,    63,    57,   109,   117,    65,    91,   111,    94,    59,    92,   112,    95,    60,    56,   108,   116,    64</elem>
			<elem id="11">    61,   113,   121,    69,    63,   115,   123,    71,    93,   118,    96,    66,    94,   119,    97,    67,    62,   114,   122,    70</elem>
			<elem id="12">    63,   115,   123,    71,    65,   117,   125,    73,    94,   119,    97,    67,    95,   120,    98,    68,    64,   116,   124,    72</elem>
			<elem id="13">    69,   121,   129,    77,    71,   123,   131,    79,    96,   126,    99,    74,    97,   127,   100,    75,    70,   122,   130,    78</elem>
			<elem id="14">    71,   123,   131,    79,    73,   125,   133,    81,    97,   127,   100,    75,    98,   128,   101,    76,    72,   124,   132,    80</elem>
			<elem id="15">    77,   129,   137,    85,    79,   131,   139,    87,    99,   134,   102,    82,   100,   135,   103,    83,    78,   130,   138,    86</elem>
			<elem id="16">    79,   131,   139,    87,    81,   133,   141,    89,   100,   135,   103,    83,   101,   136,   104,    84,    80,   132,   140,    88</elem>
			<elem id="17">   105,   157,   165,   113,   107,   159,   167,   115,   142,   162,   145,   110,   143,   163,   146,   111,   106,   158,   166,   114</elem>
			<elem id="18">   107,   159,   167,   115,   109,   161,   169,   117,   143,   163,   146,   111,   144,   164,   147,   112,   108,   160,   168,   116</elem>
			<elem id="19">   113,   165,   173,   121,   115,   167,   175,   123,   145,   170,   148,   118,   146,   171,   149,   119,   114,   166,   174,   122</elem>
			<elem id="20">   115,   167,   175,   123,   117,   169,   177,   125,   146,   171,   149,   119,   147,   172,   150,   120,   116,   168,   176,   124</elem>
<!-- ... 60 like lines cut -->
		</Elements>
	</Geometry>
	<Boundary>
	</Boundary>
	<Contact>
		<contact type="rigid">
			<node id="1" rb="2"></node>
			<node id="2" rb="2"></node>
			<node id="3" rb="2"></node>
			<node id="4" rb="2"></node>
			<node id="5" rb="2"></node>
			<node id="6" rb="2"></node>
			<node id="7" rb="2"></node>
			<node id="8" rb="2"></node>
			<node id="9" rb="2"></node>
			<node id="10" rb="2"></node>
			<node id="11" rb="2"></node>
			<node id="12" rb="2"></node>
			<node id="13" rb="2"></node>
			<node id="14" rb="2"></node>
			<node id="15" rb="2"></node>
			<node id="16" rb="2"></node>
			<node id="17" rb="2"></node>
			<node id="18" rb="2"></node>
			<node id="19" rb="2"></node>
			<node id="20" rb="2"></node>
<!-- ... 17 like lines cut -->
		</contact>
		<contact type="rigid">
			<node id="521" rb="3"></node>
			<node id="522" rb="3"></node>
			<node id="523" rb="3"></node>
			<node id="524" rb="3"></node>
			<node id="525" rb="3"></node>
			<node id="526" rb="3"></node>
			<node id="527" rb="3"></node>
			<node id="528" rb="3"></node>
			<node id="529" rb="3"></node>
			<node id="530" rb="3"></node>
			<node id="531" rb="3"></node>
			<node id="532" rb="3"></node>
			<node id="533" rb="3"></node>
			<node id="534" rb="3"></node>
			<node id="535" rb="3"></node>
			<node id="536" rb="3"></node>
			<node id="537" rb="3"></node>
			<node id="538" rb="3"></node>
			<node id="539" rb="3"></node>
			<node id="540" rb="3"></node>
<!-- ... 17 like lines cut -->
		</contact>
	</Contact>
	<Constraints>
		<rigid_body mat="2">
			<fixed bc="x"/>
			<fixed bc="y"/>
			<fixed bc="z"/>
			<fixed bc="Rx"/>
			<fixed bc="Ry"/>
			<fixed bc="Rz"/>
		</rigid_body>
		<rigid_body mat="3">
			<fixed bc="y"/>
			<fixed bc="z"/>
			<fixed bc="Rx"/>
			<fixed bc="Ry"/>
			<fixed bc="Rz"/>
		</rigid_body>
		<rigid_body mat="3">
			<prescribed bc="x" lc="1">1</prescribed>
		</rigid_body>
	</Constraints>
	<LoadData>
		<loadcurve id="1" type="smooth">
			<point>0,0</point>
			<point>1,2</point>
		</loadcurve>
	</LoadData>
	<Output>
		<plotfile type="febio">
			<var type="displacement"/>
			<var type="reaction forces"/>
			<var type="relative volume"/>
			<var type="strain energy density"/>
			<var type="stress"/>
		</plotfile>
		<logfile>
			<rigid_body_data data="Fx">3</rigid_body_data>
		</logfile>
	</Output>
</febio_spec>
