<?xml version="1.0" encoding="ISO-8859-1"?>
<!--
Problem Description:
	An element with prescribed displacement of -0.5 units in the z-direction compresses
	a 5x5x4 element block with sliding contact.
Main Features:
	Contact using the sliding_with_gaps algorithm
Secondary Features:
	
Materials:
	Mooney-Rivlin
Degrees of Freedom: 368
Results:
	Steps Completed: 6
	Equilibrium Iterations: 31
	Right Hand Evaluations: 44
	Siffness Reformations: 7
	Other:
		The bottom of the top element (node 187) has a z-displacement of -0.215 at time t=1.
Comments:
	Convergence and contact penetration are improved by setting auto="on" in the contact penalty.
-->
<febio_spec version="2.0">
	<Module type="solid"/>
	<Control>
		<title>Sliding Contact Block Compression</title>
		<time_steps>10</time_steps>
		<step_size>0.1</step_size>
		<max_refs>15</max_refs>
		<max_ups>10</max_ups>
		<dtol>0.001</dtol>
		<etol>0.01</etol>
		<rtol>1e+010</rtol>
		<lstol>0.9</lstol>
		<time_stepper>
			<dtmin>0.0333333</dtmin>
			<dtmax>0.3</dtmax>
			<max_retries>5</max_retries>
			<opt_iter>11</opt_iter>
		</time_stepper>
		<analysis type="static"/>
	</Control>
	<Globals>
		<Constants>
			<T>298</T>
			<R>8.314e-006</R>
			<Fc>0</Fc>
		</Constants>
	</Globals>
	<Material>
		<material id="1" name="Material 1" type="Mooney-Rivlin">
			<density>1</density>
			<c1>100</c1>
			<c2>0</c2>
			<k>933.333</k>
		</material>
	</Material>
	<Geometry>
		<Nodes>
			<node id="1">-5.0000000e-001,-5.0000000e-001, 0.0000000e+000</node>
			<node id="2">-5.0000000e-001,-5.0000000e-001, 1.2500000e-001</node>
			<node id="3">-5.0000000e-001,-5.0000000e-001, 2.5000000e-001</node>
			<node id="4">-5.0000000e-001,-5.0000000e-001, 3.7500000e-001</node>
			<node id="5">-5.0000000e-001,-5.0000000e-001, 5.0000000e-001</node>
			<node id="6">-5.0000000e-001,-3.0000001e-001, 0.0000000e+000</node>
			<node id="7">-5.0000000e-001,-3.0000001e-001, 1.2500000e-001</node>
			<node id="8">-5.0000000e-001,-3.0000001e-001, 2.5000000e-001</node>
			<node id="9">-5.0000000e-001,-3.0000001e-001, 3.7500000e-001</node>
			<node id="10">-5.0000000e-001,-3.0000001e-001, 5.0000000e-001</node>
			<node id="11">-5.0000000e-001,-1.0000000e-001, 0.0000000e+000</node>
			<node id="12">-5.0000000e-001,-1.0000000e-001, 1.2500000e-001</node>
			<node id="13">-5.0000000e-001,-1.0000000e-001, 2.5000000e-001</node>
			<node id="14">-5.0000000e-001,-1.0000000e-001, 3.7500000e-001</node>
			<node id="15">-5.0000000e-001,-1.0000000e-001, 5.0000000e-001</node>
			<node id="16">-5.0000000e-001, 1.0000000e-001, 0.0000000e+000</node>
			<node id="17">-5.0000000e-001, 1.0000000e-001, 1.2500000e-001</node>
			<node id="18">-5.0000000e-001, 1.0000000e-001, 2.5000000e-001</node>
			<node id="19">-5.0000000e-001, 1.0000000e-001, 3.7500000e-001</node>
			<node id="20">-5.0000000e-001, 1.0000000e-001, 5.0000000e-001</node>
<!-- ... 168 like lines cut -->
		</Nodes>
		<Elements type="hex8" mat="1" elset="Part4">
			<elem id="1">     1,    31,    36,     6,     2,    32,    37,     7</elem>
			<elem id="2">     2,    32,    37,     7,     3,    33,    38,     8</elem>
			<elem id="3">     3,    33,    38,     8,     4,    34,    39,     9</elem>
			<elem id="4">     4,    34,    39,     9,     5,    35,    40,    10</elem>
			<elem id="5">     6,    36,    41,    11,     7,    37,    42,    12</elem>
			<elem id="6">     7,    37,    42,    12,     8,    38,    43,    13</elem>
			<elem id="7">     8,    38,    43,    13,     9,    39,    44,    14</elem>
			<elem id="8">     9,    39,    44,    14,    10,    40,    45,    15</elem>
			<elem id="9">    11,    41,    46,    16,    12,    42,    47,    17</elem>
			<elem id="10">    12,    42,    47,    17,    13,    43,    48,    18</elem>
			<elem id="11">    13,    43,    48,    18,    14,    44,    49,    19</elem>
			<elem id="12">    14,    44,    49,    19,    15,    45,    50,    20</elem>
			<elem id="13">    16,    46,    51,    21,    17,    47,    52,    22</elem>
			<elem id="14">    17,    47,    52,    22,    18,    48,    53,    23</elem>
			<elem id="15">    18,    48,    53,    23,    19,    49,    54,    24</elem>
			<elem id="16">    19,    49,    54,    24,    20,    50,    55,    25</elem>
			<elem id="17">    21,    51,    56,    26,    22,    52,    57,    27</elem>
			<elem id="18">    22,    52,    57,    27,    23,    53,    58,    28</elem>
			<elem id="19">    23,    53,    58,    28,    24,    54,    59,    29</elem>
			<elem id="20">    24,    54,    59,    29,    25,    55,    60,    30</elem>
<!-- ... 81 like lines cut -->
		</Elements>
		<Surface name="MasterSurface01">
			<quad4 id="1">     5,    35,    40,    10</quad4>
			<quad4 id="2">    10,    40,    45,    15</quad4>
			<quad4 id="3">    15,    45,    50,    20</quad4>
			<quad4 id="4">    20,    50,    55,    25</quad4>
			<quad4 id="5">    25,    55,    60,    30</quad4>
			<quad4 id="6">    35,    65,    70,    40</quad4>
			<quad4 id="7">    40,    70,    75,    45</quad4>
			<quad4 id="8">    45,    75,    80,    50</quad4>
			<quad4 id="9">    50,    80,    85,    55</quad4>
			<quad4 id="10">    55,    85,    90,    60</quad4>
			<quad4 id="11">    65,    95,   100,    70</quad4>
			<quad4 id="12">    70,   100,   105,    75</quad4>
			<quad4 id="13">    75,   105,   110,    80</quad4>
			<quad4 id="14">    80,   110,   115,    85</quad4>
			<quad4 id="15">    85,   115,   120,    90</quad4>
			<quad4 id="16">    95,   125,   130,   100</quad4>
			<quad4 id="17">   100,   130,   135,   105</quad4>
			<quad4 id="18">   105,   135,   140,   110</quad4>
			<quad4 id="19">   110,   140,   145,   115</quad4>
			<quad4 id="20">   115,   145,   150,   120</quad4>
<!-- ... 5 like lines cut -->
		</Surface>
		<Surface name="SlaveSurface01">
			<quad4 id="1">   183,   187,   185,   181</quad4>
		</Surface>
	</Geometry>
	<Boundary>
		<fix bc="z">
			<node id="1"/>
			<node id="6"/>
			<node id="11"/>
			<node id="16"/>
			<node id="21"/>
			<node id="26"/>
			<node id="31"/>
			<node id="36"/>
			<node id="41"/>
			<node id="46"/>
			<node id="51"/>
			<node id="56"/>
			<node id="61"/>
			<node id="66"/>
			<node id="71"/>
			<node id="76"/>
			<node id="81"/>
			<node id="86"/>
			<node id="91"/>
			<node id="96"/>
<!-- ... 16 like lines cut -->
		</fix>
		<fix bc="y">
			<node id="1"/>
			<node id="5"/>
			<node id="6"/>
			<node id="10"/>
			<node id="11"/>
			<node id="15"/>
			<node id="16"/>
			<node id="20"/>
			<node id="21"/>
			<node id="25"/>
			<node id="26"/>
			<node id="30"/>
			<node id="31"/>
			<node id="35"/>
			<node id="36"/>
			<node id="40"/>
			<node id="41"/>
			<node id="45"/>
			<node id="46"/>
			<node id="50"/>
<!-- ... 60 like lines cut -->
		</fix>
		<fix bc="x">
			<node id="1"/>
			<node id="5"/>
			<node id="6"/>
			<node id="10"/>
			<node id="11"/>
			<node id="15"/>
			<node id="16"/>
			<node id="20"/>
			<node id="21"/>
			<node id="25"/>
			<node id="26"/>
			<node id="30"/>
			<node id="31"/>
			<node id="35"/>
			<node id="36"/>
			<node id="40"/>
			<node id="41"/>
			<node id="45"/>
			<node id="46"/>
			<node id="50"/>
<!-- ... 60 like lines cut -->
		</fix>
		<prescribe bc="z" lc="1">
			<node id="182">1</node>
			<node id="184">1</node>
			<node id="186">1</node>
			<node id="188">1</node>
		</prescribe>
	</Boundary>
	<Contact>
		<contact type="sliding_with_gaps">
			<laugon>0</laugon>
			<tolerance>0.1</tolerance>
			<penalty>1e+006</penalty>
			<two_pass>0</two_pass>
			<auto_penalty>1</auto_penalty>
			<fric_coeff>0</fric_coeff>
			<fric_penalty>0</fric_penalty>
			<search_tol>0.01</search_tol>
			<minaug>0</minaug>
			<maxaug>10</maxaug>
			<gaptol>0</gaptol>
			<seg_up>0</seg_up>
			<surface type="master" set="MasterSurface01"/>
			<surface type="slave" set="SlaveSurface01"/>
		</contact>
	</Contact>
	<LoadData>
		<loadcurve id="1" type="linear">
			<loadpoint>0,0</loadpoint>
			<loadpoint>1,-0.5</loadpoint>
		</loadcurve>
	</LoadData>
	<Output>
		<plotfile type="febio">
			<var type="contact gap"/>
			<var type="contact pressure"/>
			<var type="displacement"/>
			<var type="effective fluid pressure"/>
			<var type="effective solute 1 concentration"/>
			<var type="fluid flux"/>
			<var type="fluid pressure"/>
			<var type="relative volume"/>
			<var type="solute 1 concentration"/>
			<var type="solute 1 flux"/>
			<var type="stress"/>
		</plotfile>
		<logfile>
			<element_data data="Ez">92</element_data>
		</logfile>
	</Output>
</febio_spec>
