<?xml version="1.0" encoding="ISO-8859-1"?>
<!--
Problem Description:
	A quarter disk is compressed by a rigid wall with a prescribed displacement of 0.5
	units in the y-direction from time t=0 to t=0.5 and then returning to 0 displacement
	from time t=0.5 to t=1.
Main Features:
	Rigid Wall Contact
Secondary Features:
	Nodal constraints using prescribed displacement of 0.
Materials:
	Neo-Hookean
Degrees of Freedom: 212
Results:
	Steps Completed: 12
	Equilibrium Iterations: 105
	Right Hand Evaluations: 190
	Siffness Reformations: 18
	Other:
		The corner of the disk touching the rigid wall has a y-displacement of
		0.493 at time t=0.5
Comments:
	
-->
<febio_spec version="2.0">
	<Module type="solid"/>
	<Control>
		<title>Rigid Wall Compression of Disk</title>
		<time_steps>10</time_steps>
		<step_size>0.1</step_size>
		<max_refs>15</max_refs>
		<max_ups>10</max_ups>
		<dtol>0.001</dtol>
		<etol>0.01</etol>
		<rtol>0</rtol>
		<lstol>0.9</lstol>
		<time_stepper>
			<dtmin>0.01</dtmin>
			<dtmax lc="1"></dtmax>
			<max_retries>5</max_retries>
			<opt_iter>10</opt_iter>
		</time_stepper>
		<analysis type="static"/>
	</Control>
	<Globals>
		<Constants>
			<T>0</T>
			<R>0</R>
			<Fc>0</Fc>
		</Constants>
	</Globals>
	<Material>
		<material id="1" name="Material 1" type="neo-Hookean">
			<density>1</density>
			<E>1</E>
			<v>0.4</v>
		</material>
	</Material>
	<Geometry>
		<Nodes>
			<node id="1"> 1.3997721e-009, 6.4644661e-001, 0.0000000e+000</node>
			<node id="2"> 1.3997721e-009, 7.6429774e-001, 0.0000000e+000</node>
			<node id="3"> 1.3997721e-009, 8.8214887e-001, 0.0000000e+000</node>
			<node id="4"> 1.3997721e-009, 1.0000000e+000, 0.0000000e+000</node>
			<node id="5"> 1.1785113e-001, 6.4644661e-001, 0.0000000e+000</node>
			<node id="6"> 1.1785113e-001, 7.6429774e-001, 0.0000000e+000</node>
			<node id="7"> 1.1785113e-001, 8.8214887e-001, 0.0000000e+000</node>
			<node id="8"> 1.1785113e-001, 1.0000000e+000, 0.0000000e+000</node>
			<node id="9"> 2.3570226e-001, 6.4644661e-001, 0.0000000e+000</node>
			<node id="10"> 2.3570226e-001, 7.6429774e-001, 0.0000000e+000</node>
			<node id="11"> 2.3570226e-001, 8.8214887e-001, 0.0000000e+000</node>
			<node id="12"> 2.3570226e-001, 1.0000000e+000, 0.0000000e+000</node>
			<node id="13"> 3.5355339e-001, 6.4644661e-001, 0.0000000e+000</node>
			<node id="14"> 3.5355339e-001, 7.6429774e-001, 0.0000000e+000</node>
			<node id="15"> 3.5355339e-001, 8.8214887e-001, 0.0000000e+000</node>
			<node id="16"> 3.5355339e-001, 1.0000000e+000, 0.0000000e+000</node>
			<node id="17">-1.2230971e-008, 5.3870551e-001, 0.0000000e+000</node>
			<node id="18">-2.5861715e-008, 4.3096441e-001, 0.0000000e+000</node>
			<node id="19">-3.9492459e-008, 3.2322330e-001, 0.0000000e+000</node>
			<node id="20">-5.3123202e-008, 2.1548220e-001, 0.0000000e+000</node>
<!-- ... 96 like lines cut -->
		</Nodes>
		<Elements type="hex8" mat="1" elset="Part1">
			<elem id="1">     1,     5,     6,     2,    59,    63,    64,    60</elem>
			<elem id="2">     2,     6,     7,     3,    60,    64,    65,    61</elem>
			<elem id="3">     3,     7,     8,     4,    61,    65,    66,    62</elem>
			<elem id="4">     5,     9,    10,     6,    63,    67,    68,    64</elem>
			<elem id="5">     6,    10,    11,     7,    64,    68,    69,    65</elem>
			<elem id="6">     7,    11,    12,     8,    65,    69,    70,    66</elem>
			<elem id="7">     9,    13,    14,    10,    67,    71,    72,    68</elem>
			<elem id="8">    10,    14,    15,    11,    68,    72,    73,    69</elem>
			<elem id="9">    11,    15,    16,    12,    69,    73,    74,    70</elem>
			<elem id="10">     1,    17,    23,     5,    59,    75,    81,    63</elem>
			<elem id="11">    17,    18,    24,    23,    75,    76,    82,    81</elem>
			<elem id="12">    18,    19,    25,    24,    76,    77,    83,    82</elem>
			<elem id="13">    19,    20,    26,    25,    77,    78,    84,    83</elem>
			<elem id="14">    20,    21,    27,    26,    78,    79,    85,    84</elem>
			<elem id="15">    21,    22,    28,    27,    79,    80,    86,    85</elem>
			<elem id="16">     5,    23,    29,     9,    63,    81,    87,    67</elem>
			<elem id="17">    23,    24,    30,    29,    81,    82,    88,    87</elem>
			<elem id="18">    24,    25,    31,    30,    82,    83,    89,    88</elem>
			<elem id="19">    25,    26,    32,    31,    83,    84,    90,    89</elem>
			<elem id="20">    26,    27,    33,    32,    84,    85,    91,    90</elem>
<!-- ... 25 like lines cut -->
		</Elements>
	</Geometry>
	<Boundary>
		<fix bc="z">
			<node id="1"/>
			<node id="2"/>
			<node id="3"/>
			<node id="4"/>
			<node id="5"/>
			<node id="6"/>
			<node id="7"/>
			<node id="8"/>
			<node id="9"/>
			<node id="10"/>
			<node id="11"/>
			<node id="12"/>
			<node id="13"/>
			<node id="14"/>
			<node id="15"/>
			<node id="16"/>
			<node id="17"/>
			<node id="18"/>
			<node id="19"/>
			<node id="20"/>
<!-- ... 96 like lines cut -->
		</fix>
		<fix bc="x">
			<node id="1"/>
			<node id="2"/>
			<node id="3"/>
			<node id="4"/>
			<node id="17"/>
			<node id="18"/>
			<node id="19"/>
			<node id="20"/>
			<node id="21"/>
			<node id="22"/>
			<node id="59"/>
			<node id="60"/>
			<node id="61"/>
			<node id="62"/>
			<node id="75"/>
			<node id="76"/>
			<node id="77"/>
			<node id="78"/>
			<node id="79"/>
			<node id="80"/>
		</fix>
		<prescribe bc="y" lc="2">
			<node id="4">1</node>
			<node id="8">1</node>
			<node id="12">1</node>
			<node id="16">1</node>
			<node id="53">1</node>
			<node id="54">1</node>
			<node id="55">1</node>
			<node id="56">1</node>
			<node id="57">1</node>
			<node id="58">1</node>
			<node id="62">1</node>
			<node id="66">1</node>
			<node id="70">1</node>
			<node id="74">1</node>
			<node id="111">1</node>
			<node id="112">1</node>
			<node id="113">1</node>
			<node id="114">1</node>
			<node id="115">1</node>
			<node id="116">1</node>
		</prescribe>
	</Boundary>
	<Contact>
		<contact type="rigid_wall">
			<laugon>0</laugon>
			<tolerance>0.01</tolerance>
			<penalty>150</penalty>
			<plane lc="3">0,1,0,0</plane>
			<surface>
				<quad4 id="1">    22,    28,    86,    80</quad4>
				<quad4 id="2">    28,    34,    92,    86</quad4>
				<quad4 id="3">    34,    40,    98,    92</quad4>
				<quad4 id="4">    40,    46,   104,    98</quad4>
				<quad4 id="5">    46,    52,   110,   104</quad4>
				<quad4 id="6">    52,    58,   116,   110</quad4>
			</surface>
		</contact>
	</Contact>
	<LoadData>
		<loadcurve id="1" type="step">
			<loadpoint>0,0</loadpoint>
			<loadpoint>0.6,0.1</loadpoint>
			<loadpoint>1,0.1</loadpoint>
		</loadcurve>
		<loadcurve id="2" type="linear">
			<loadpoint>0,0</loadpoint>
			<loadpoint>1,0</loadpoint>
		</loadcurve>
		<loadcurve id="3" type="linear">
			<loadpoint>0,0</loadpoint>
			<loadpoint>0.5,0.5</loadpoint>
			<loadpoint>1,0</loadpoint>
		</loadcurve>
	</LoadData>
	<Output>
		<plotfile type="febio"></plotfile>
		<logfile>
			<element_data data="sy">15</element_data>
		</logfile>	
	</Output>
</febio_spec>
