<?xml version="1.0" encoding="ISO-8859-1"?>
<!--
Problem Description:
	Block with prescribed displacement of 2.5 units in z-direction from time t=0 to t=1
	sliding and compressing against inclined rigid body plane.
Main Features:
	Rigid Wall Contact.
Secondary Features:
	Load curve for contact penalty
Materials:
	Neo-Hookean
	Rigid Bodies
Degrees of Freedom: 1924
Results:
	Solver: Pardiso
	Steps Completed: 10
	Equilibrium Iterations: 48
	Right Hand Evaluations: 74
	Siffness Reformations: 10
	Other:
		The maximum effective strain is 0.723 at time t=1.
Comments:
	
-->
<febio_spec version="2.0">
	<Module type="solid"/>
	<Control>
		<title>Block on Inclined Plane</title>
		<time_steps>10</time_steps>
		<step_size>0.1</step_size>
		<max_refs>15</max_refs>
		<max_ups>10</max_ups>
		<dtol>0.001</dtol>
		<etol>0.01</etol>
		<rtol>0</rtol>
		<lstol>0.9</lstol>
		<time_stepper>
			<dtmin>0.01</dtmin>
			<dtmax>0.1</dtmax>
			<max_retries>5</max_retries>
			<opt_iter>10</opt_iter>
		</time_stepper>
		<analysis type="static"/>
	</Control>
	<Globals>
		<Constants>
			<T>298</T>
			<R>8.314e-006</R>
			<Fc>0</Fc>
		</Constants>
	</Globals>
	<Material>
		<material id="1" name="Material 4" type="neo-Hookean">
			<density>1</density>
			<E>1</E>
			<v>0.35</v>
		</material>
		<material id="2" name="Material 5" type="rigid body">
			<density>1</density>
		</material>
	</Material>
	<Geometry>
		<Nodes>
			<node id="1"> 0.0000000e+000,-5.0000000e-001, 0.0000000e+000</node>
			<node id="2"> 0.0000000e+000,-5.0000000e-001, 1.0000000e-001</node>
			<node id="3"> 0.0000000e+000,-5.0000000e-001, 2.0000000e-001</node>
			<node id="4"> 0.0000000e+000,-5.0000000e-001, 3.0000000e-001</node>
			<node id="5"> 0.0000000e+000,-5.0000000e-001, 4.0000000e-001</node>
			<node id="6"> 0.0000000e+000,-5.0000000e-001, 5.0000000e-001</node>
			<node id="7"> 0.0000000e+000,-5.0000000e-001, 6.0000000e-001</node>
			<node id="8"> 0.0000000e+000,-5.0000000e-001, 7.0000000e-001</node>
			<node id="9"> 0.0000000e+000,-5.0000000e-001, 8.0000000e-001</node>
			<node id="10"> 0.0000000e+000,-5.0000000e-001, 9.0000000e-001</node>
			<node id="11"> 0.0000000e+000,-5.0000000e-001, 1.0000000e+000</node>
			<node id="12"> 0.0000000e+000,-4.0000000e-001, 0.0000000e+000</node>
			<node id="13"> 0.0000000e+000,-4.0000000e-001, 1.0000000e-001</node>
			<node id="14"> 0.0000000e+000,-4.0000000e-001, 2.0000000e-001</node>
			<node id="15"> 0.0000000e+000,-4.0000000e-001, 3.0000000e-001</node>
			<node id="16"> 0.0000000e+000,-4.0000000e-001, 4.0000000e-001</node>
			<node id="17"> 0.0000000e+000,-4.0000000e-001, 5.0000000e-001</node>
			<node id="18"> 0.0000000e+000,-4.0000000e-001, 6.0000000e-001</node>
			<node id="19"> 0.0000000e+000,-4.0000000e-001, 7.0000000e-001</node>
			<node id="20"> 0.0000000e+000,-4.0000000e-001, 8.0000000e-001</node>
<!-- ... 714 like lines cut -->
		</Nodes>
		<Elements type="hex8" mat="1" elset="Part12">
			<elem id="1">     1,   122,   133,    12,     2,   123,   134,    13</elem>
			<elem id="2">     2,   123,   134,    13,     3,   124,   135,    14</elem>
			<elem id="3">     3,   124,   135,    14,     4,   125,   136,    15</elem>
			<elem id="4">     4,   125,   136,    15,     5,   126,   137,    16</elem>
			<elem id="5">     5,   126,   137,    16,     6,   127,   138,    17</elem>
			<elem id="6">     6,   127,   138,    17,     7,   128,   139,    18</elem>
			<elem id="7">     7,   128,   139,    18,     8,   129,   140,    19</elem>
			<elem id="8">     8,   129,   140,    19,     9,   130,   141,    20</elem>
			<elem id="9">     9,   130,   141,    20,    10,   131,   142,    21</elem>
			<elem id="10">    10,   131,   142,    21,    11,   132,   143,    22</elem>
			<elem id="11">    12,   133,   144,    23,    13,   134,   145,    24</elem>
			<elem id="12">    13,   134,   145,    24,    14,   135,   146,    25</elem>
			<elem id="13">    14,   135,   146,    25,    15,   136,   147,    26</elem>
			<elem id="14">    15,   136,   147,    26,    16,   137,   148,    27</elem>
			<elem id="15">    16,   137,   148,    27,    17,   138,   149,    28</elem>
			<elem id="16">    17,   138,   149,    28,    18,   139,   150,    29</elem>
			<elem id="17">    18,   139,   150,    29,    19,   140,   151,    30</elem>
			<elem id="18">    19,   140,   151,    30,    20,   141,   152,    31</elem>
			<elem id="19">    20,   141,   152,    31,    21,   142,   153,    32</elem>
			<elem id="20">    21,   142,   153,    32,    22,   143,   154,    33</elem>
<!-- ... 480 like lines cut -->
		</Elements>
		<Elements type="hex8" mat="2" elset="Part13">
			<elem id="501">   727,   731,   733,   729,   728,   732,   734,   730</elem>
		</Elements>
	</Geometry>
	<Boundary>
		<fix bc="y">
			<node id="1"/>
			<node id="2"/>
			<node id="3"/>
			<node id="4"/>
			<node id="5"/>
			<node id="6"/>
			<node id="7"/>
			<node id="8"/>
			<node id="9"/>
			<node id="10"/>
			<node id="11"/>
			<node id="111"/>
			<node id="112"/>
			<node id="113"/>
			<node id="114"/>
			<node id="115"/>
			<node id="116"/>
			<node id="117"/>
			<node id="118"/>
			<node id="119"/>
<!-- ... 113 like lines cut -->
		</fix>
		<fix bc="x">
			<node id="1"/>
			<node id="2"/>
			<node id="3"/>
			<node id="4"/>
			<node id="5"/>
			<node id="6"/>
			<node id="7"/>
			<node id="8"/>
			<node id="9"/>
			<node id="10"/>
			<node id="11"/>
			<node id="12"/>
			<node id="13"/>
			<node id="14"/>
			<node id="15"/>
			<node id="16"/>
			<node id="17"/>
			<node id="18"/>
			<node id="19"/>
			<node id="20"/>
<!-- ... 101 like lines cut -->
		</fix>
		<prescribe bc="z" lc="1">
			<node id="1">1</node>
			<node id="12">1</node>
			<node id="23">1</node>
			<node id="34">1</node>
			<node id="45">1</node>
			<node id="56">1</node>
			<node id="67">1</node>
			<node id="78">1</node>
			<node id="89">1</node>
			<node id="100">1</node>
			<node id="111">1</node>
			<node id="122">1</node>
			<node id="133">1</node>
			<node id="144">1</node>
			<node id="155">1</node>
			<node id="166">1</node>
			<node id="177">1</node>
			<node id="188">1</node>
			<node id="199">1</node>
			<node id="210">1</node>
<!-- ... 46 like lines cut -->
		</prescribe>
	</Boundary>
	<Contact>
		<contact type="rigid_wall">
			<tolerance>0.01</tolerance>
			<penalty lc="2">1</penalty>
			<plane>-1,0,-0.1,-0.6</plane>
			<surface>
				<quad4 id="2">   606,   617,   618,   607</quad4>
				<quad4 id="3">   607,   618,   619,   608</quad4>
				<quad4 id="4">   608,   619,   620,   609</quad4>
				<quad4 id="5">   609,   620,   621,   610</quad4>
				<quad4 id="6">   610,   621,   622,   611</quad4>
				<quad4 id="7">   611,   622,   623,   612</quad4>
				<quad4 id="8">   612,   623,   624,   613</quad4>
				<quad4 id="9">   613,   624,   625,   614</quad4>
				<quad4 id="10">   614,   625,   626,   615</quad4>
				<quad4 id="11">   615,   626,   627,   616</quad4>
				<quad4 id="12">   617,   628,   629,   618</quad4>
				<quad4 id="13">   618,   629,   630,   619</quad4>
				<quad4 id="14">   619,   630,   631,   620</quad4>
				<quad4 id="15">   620,   631,   632,   621</quad4>
				<quad4 id="16">   621,   632,   633,   622</quad4>
				<quad4 id="17">   622,   633,   634,   623</quad4>
				<quad4 id="18">   623,   634,   635,   624</quad4>
				<quad4 id="19">   624,   635,   636,   625</quad4>
				<quad4 id="20">   625,   636,   637,   626</quad4>
				<quad4 id="21">   626,   637,   638,   627</quad4>
<!-- ... 80 like lines cut -->
			</surface>
		</contact>
	</Contact>
	<Constraints>
		<rigid_body mat="2">
			<fixed bc="x"/>
			<fixed bc="y"/>
			<fixed bc="z"/>
			<fixed bc="Rx"/>
			<fixed bc="Ry"/>
			<fixed bc="Rz"/>
		</rigid_body>
	</Constraints>
	<LoadData>
		<loadcurve id="1">
			<loadpoint>0,0</loadpoint>
			<loadpoint>1,2.5</loadpoint>
		</loadcurve>
		<loadcurve id="2">
			<loadpoint>0.0,  1</loadpoint>
			<loadpoint>0.7, 50</loadpoint>
			<loadpoint>1.0,250</loadpoint>
		</loadcurve>
	</LoadData>
	<Output>
		<plotfile type="febio">
			<var type="contact gap"/>
			<var type="contact pressure"/>
			<var type="displacement"/>
			<var type="relative volume"/>
			<var type="stress"/>
		</plotfile>
		<logfile>
			<element_data data="Ez">500</element_data>
		</logfile>
	</Output>
</febio_spec>
