<?xml version="1.0" encoding="ISO-8859-1"?>
<!--
Problem Description:
	Cleveland Clinic 2-d foot model
Main Features:
	Rigid-wall contact
	Rigid Bodies
Secondary Features:
	Multiple prescribed displacement loadcurves
Materials:
	Neo-Hookean
	Mooney-Rivlin
	Rigid Bodies
Degrees of Freedom: 
Results:
	Steps Completed: 24
	Equilibrium Iterations: 134
	Right Hand Evaluations: 160
	Siffness Reformations: 24
	Other:
		The maximum effective strain is 0.227 units and occurs in the muscle
		above the ball of the foot at time t=41.23
Comments:
	
-->
<febio_spec version="2.0">
	<Module type="solid"/>
	<Control>
		<title>2D Foot model - sliding interfaces</title>
		<time_steps>60</time_steps>
		<step_size>1</step_size>
		<max_refs>15</max_refs>
		<max_ups>10</max_ups>
		<dtol>0.001</dtol>
		<etol>0.01</etol>
		<rtol>1e+010</rtol>
		<lstol>0.9</lstol>
		<time_stepper>
			<dtmin>0.5</dtmin>
			<dtmax lc="4">3</dtmax>
			<max_retries>5</max_retries>
			<opt_iter>30</opt_iter>
		</time_stepper>
	</Control>
	<Material>
		<material id="1" name="floor" type="rigid body">
			<density>1000</density>
			<center_of_mass>0,0,0</center_of_mass>
		</material>
		<material id="2" name="ALLCARTILAGE" type="rigid body">
			<density>1000</density>
		</material>
		<material id="3" name="CALCANEUS" type="rigid body">
			<density>1000</density>
			<center_of_mass>-81,120,0.5</center_of_mass>
		</material>
		<material id="4" name="DPHAL" type="rigid body">
			<density>1000</density>
		</material>
		<material id="5" name="META-PPHAL" type="neo-Hookean">
			<E>1</E>
			<v>0.3</v>
		</material>
		<material id="6" name="METATARSAL" type="rigid body">
			<density>1000</density>
		</material>
		<material id="7" name="NAV-TAR" type="rigid body">
			<density>1000</density>
		</material>
		<material id="8" name="NAVICULAR" type="rigid body">
			<density>1000</density>
		</material>
		<material id="9" name="PPHAL" type="rigid body">
			<density>1000</density>
		</material>
		<material id="10" name="PPHAL-DPHAL" type="rigid body">
			<density>1000</density>
		</material>
		<material id="11" name="SOFT" type="Mooney-Rivlin">
			<c1>1</c1>
			<c2>0</c2>
			<k>1.33333</k>
		</material>
		<material id="12" name="TAL-CAL" type="rigid body">
			<density>1000</density>
		</material>
		<material id="13" name="TAL-NAV" type="rigid body">
			<density>1000</density>
		</material>
		<material id="14" name="TALUS" type="rigid body">
			<density>1000</density>
		</material>
		<material id="15" name="TAR-META" type="rigid body">
			<density>1000</density>
		</material>
		<material id="16" name="TARSAL" type="rigid body">
			<density>1000</density>
		</material>
	</Material>
	<Geometry>
		<Nodes>
			<node id="1">-4.2506599e+001, 3.5454899e+001, 0.0000000e+000</node>
			<node id="2">-4.2506599e+001, 3.5454899e+001, 1.0000000e+000</node>
			<node id="3">-4.2447701e+001, 3.8544601e+001, 0.0000000e+000</node>
			<node id="4">-4.2447701e+001, 3.8544601e+001, 1.0000000e+000</node>
			<node id="5">-4.2388802e+001, 4.1634300e+001, 0.0000000e+000</node>
			<node id="6">-4.2388802e+001, 4.1634300e+001, 1.0000000e+000</node>
			<node id="7">-4.2329899e+001, 4.4723999e+001, 0.0000000e+000</node>
			<node id="8">-4.2329899e+001, 4.4723999e+001, 1.0000000e+000</node>
			<node id="9">-4.2270901e+001, 4.7813599e+001, 0.0000000e+000</node>
			<node id="10">-4.2270901e+001, 4.7813599e+001, 1.0000000e+000</node>
			<node id="11">-4.2212002e+001, 5.0903301e+001, 0.0000000e+000</node>
			<node id="12">-4.2212002e+001, 5.0903301e+001, 1.0000000e+000</node>
			<node id="13">-4.2153099e+001, 5.3993000e+001, 0.0000000e+000</node>
			<node id="14">-4.2153099e+001, 5.3993000e+001, 1.0000000e+000</node>
			<node id="15">-4.6069401e+001, 3.4188499e+001, 0.0000000e+000</node>
			<node id="16">-4.6069401e+001, 3.4188499e+001, 1.0000000e+000</node>
			<node id="17">-4.5841499e+001, 3.7506302e+001, 0.0000000e+000</node>
			<node id="18">-4.5841499e+001, 3.7506302e+001, 1.0000000e+000</node>
			<node id="19">-4.5560600e+001, 4.0874001e+001, 0.0000000e+000</node>
			<node id="20">-4.5560600e+001, 4.0874001e+001, 1.0000000e+000</node>
<!-- ... 2210 like lines cut -->
		</Nodes>
		<Elements type="hex8" mat="11">
			<elem id="1">    15,     1,     3,    17,    16,     2,     4,    18</elem>
			<elem id="2">    29,    15,    17,    31,    30,    16,    18,    32</elem>
			<elem id="3">    43,    29,    31,    45,    44,    30,    32,    46</elem>
			<elem id="4">    57,    43,    45,    59,    58,    44,    46,    60</elem>
			<elem id="5">    71,    57,    59,    73,    72,    58,    60,    74</elem>
			<elem id="6">    85,    71,    73,    87,    86,    72,    74,    88</elem>
			<elem id="7">    99,    85,    87,   101,   100,    86,    88,   102</elem>
			<elem id="8">    17,     3,     5,    19,    18,     4,     6,    20</elem>
			<elem id="9">    31,    17,    19,    33,    32,    18,    20,    34</elem>
			<elem id="10">    45,    31,    33,    47,    46,    32,    34,    48</elem>
			<elem id="11">    59,    45,    47,    61,    60,    46,    48,    62</elem>
			<elem id="12">    73,    59,    61,    75,    74,    60,    62,    76</elem>
			<elem id="13">    87,    73,    75,    89,    88,    74,    76,    90</elem>
			<elem id="14">   101,    87,    89,   103,   102,    88,    90,   104</elem>
			<elem id="15">    19,     5,     7,    21,    20,     6,     8,    22</elem>
			<elem id="16">    33,    19,    21,    35,    34,    20,    22,    36</elem>
			<elem id="17">    47,    33,    35,    49,    48,    34,    36,    50</elem>
			<elem id="18">    61,    47,    49,    63,    62,    48,    50,    64</elem>
			<elem id="19">    75,    61,    63,    77,    76,    62,    64,    78</elem>
			<elem id="20">    89,    75,    77,    91,    90,    76,    78,    92</elem>
<!-- ... 64 like lines cut -->
		</Elements>
		<Elements type="hex8" mat="8">
			<elem id="85">   195,   193,   209,   223,   196,   194,   210,   224</elem>
			<elem id="86">   197,   195,   223,   237,   198,   196,   224,   238</elem>
			<elem id="87">   199,   197,   237,   251,   200,   198,   238,   252</elem>
			<elem id="88">   201,   199,   251,   265,   202,   200,   252,   266</elem>
			<elem id="89">   203,   201,   265,   279,   204,   202,   266,   280</elem>
			<elem id="90">   205,   203,   279,   293,   206,   204,   280,   294</elem>
			<elem id="91">   207,   205,   293,   307,   208,   206,   294,   308</elem>
			<elem id="92">   223,   209,   211,   225,   224,   210,   212,   226</elem>
			<elem id="93">   237,   223,   225,   239,   238,   224,   226,   240</elem>
			<elem id="94">   251,   237,   239,   253,   252,   238,   240,   254</elem>
			<elem id="95">   265,   251,   253,   267,   266,   252,   254,   268</elem>
			<elem id="96">   279,   265,   267,   281,   280,   266,   268,   282</elem>
			<elem id="97">   293,   279,   281,   295,   294,   280,   282,   296</elem>
			<elem id="98">   307,   293,   295,   309,   308,   294,   296,   310</elem>
			<elem id="99">   225,   211,   213,   227,   226,   212,   214,   228</elem>
			<elem id="100">   239,   225,   227,   241,   240,   226,   228,   242</elem>
			<elem id="101">   253,   239,   241,   255,   254,   240,   242,   256</elem>
			<elem id="102">   267,   253,   255,   269,   268,   254,   256,   270</elem>
			<elem id="103">   281,   267,   269,   283,   282,   268,   270,   284</elem>
			<elem id="104">   295,   281,   283,   297,   296,   282,   284,   298</elem>
<!-- ... 29 like lines cut -->
		</Elements>
		<Elements type="hex8" mat="11">
			<elem id="134">   235,   221,   321,   329,   236,   222,   322,   330</elem>
			<elem id="135">   249,   235,   329,   337,   250,   236,   330,   338</elem>
			<elem id="136">   263,   249,   337,   345,   264,   250,   338,   346</elem>
			<elem id="137">   277,   263,   345,   353,   278,   264,   346,   354</elem>
			<elem id="138">   291,   277,   353,   361,   292,   278,   354,   362</elem>
			<elem id="139">   305,   291,   361,   369,   306,   292,   362,   370</elem>
			<elem id="140">   319,   305,   369,   377,   320,   306,   370,   378</elem>
			<elem id="141">   329,   321,   323,   331,   330,   322,   324,   332</elem>
			<elem id="142">   337,   329,   331,   339,   338,   330,   332,   340</elem>
			<elem id="143">   345,   337,   339,   347,   346,   338,   340,   348</elem>
			<elem id="144">   353,   345,   347,   355,   354,   346,   348,   356</elem>
			<elem id="145">   361,   353,   355,   363,   362,   354,   356,   364</elem>
			<elem id="146">   369,   361,   363,   371,   370,   362,   364,   372</elem>
			<elem id="147">   377,   369,   371,   379,   378,   370,   372,   380</elem>
			<elem id="148">   331,   323,   325,   333,   332,   324,   326,   334</elem>
			<elem id="149">   339,   331,   333,   341,   340,   332,   334,   342</elem>
			<elem id="150">   347,   339,   341,   349,   348,   340,   342,   350</elem>
			<elem id="151">   355,   347,   349,   357,   356,   348,   350,   358</elem>
			<elem id="152">   363,   355,   357,   365,   364,   356,   358,   366</elem>
			<elem id="153">   371,   363,   365,   373,   372,   364,   366,   374</elem>
<!-- ... 20 like lines cut -->
		</Elements>
		<Elements type="hex8" mat="13">
			<elem id="174">   409,   207,   307,   411,   410,   208,   308,   412</elem>
			<elem id="175">   411,   307,   309,   413,   412,   308,   310,   414</elem>
			<elem id="176">   413,   309,   311,   415,   414,   310,   312,   416</elem>
			<elem id="177">   415,   311,   313,   417,   416,   312,   314,   418</elem>
			<elem id="178">   417,   313,   315,   419,   418,   314,   316,   420</elem>
			<elem id="179">   419,   315,   317,   421,   420,   316,   318,   422</elem>
			<elem id="180">   421,   317,   319,   423,   422,   318,   320,   424</elem>
		</Elements>
		<Elements type="hex8" mat="11">
			<elem id="181">   423,   319,   377,   425,   424,   320,   378,   426</elem>
			<elem id="182">   425,   377,   379,   427,   426,   378,   380,   428</elem>
			<elem id="183">   427,   379,   381,   429,   428,   380,   382,   430</elem>
			<elem id="184">   429,   381,   383,   431,   430,   382,   384,   432</elem>
			<elem id="185">   433,   385,   387,   435,   434,   386,   388,   436</elem>
			<elem id="186">   447,   433,   435,   449,   448,   434,   436,   450</elem>
			<elem id="187">   461,   447,   449,   463,   462,   448,   450,   464</elem>
			<elem id="188">   475,   461,   463,   477,   476,   462,   464,   478</elem>
			<elem id="189">   489,   475,   477,   491,   490,   476,   478,   492</elem>
			<elem id="190">   503,   489,   491,   505,   504,   490,   492,   506</elem>
			<elem id="191">   517,   503,   505,   519,   518,   504,   506,   520</elem>
			<elem id="192">   531,   517,   519,   533,   532,   518,   520,   534</elem>
			<elem id="193">   545,   531,   533,   547,   546,   532,   534,   548</elem>
			<elem id="194">   435,   387,   389,   437,   436,   388,   390,   438</elem>
			<elem id="195">   449,   435,   437,   451,   450,   436,   438,   452</elem>
			<elem id="196">   463,   449,   451,   465,   464,   450,   452,   466</elem>
			<elem id="197">   477,   463,   465,   479,   478,   464,   466,   480</elem>
			<elem id="198">   491,   477,   479,   493,   492,   478,   480,   494</elem>
			<elem id="199">   505,   491,   493,   507,   506,   492,   494,   508</elem>
			<elem id="200">   519,   505,   507,   521,   520,   506,   508,   522</elem>
<!-- ... 38 like lines cut -->
		</Elements>
		<Elements type="hex8" mat="3">
			<elem id="239">   445,   397,   399,   559,   446,   398,   400,   560</elem>
			<elem id="240">   459,   445,   559,   569,   460,   446,   560,   570</elem>
			<elem id="241">   473,   459,   569,   579,   474,   460,   570,   580</elem>
			<elem id="242">   487,   473,   579,   589,   488,   474,   580,   590</elem>
			<elem id="243">   501,   487,   589,   599,   502,   488,   590,   600</elem>
			<elem id="244">   515,   501,   599,   609,   516,   502,   600,   610</elem>
			<elem id="245">   529,   515,   609,   619,   530,   516,   610,   620</elem>
			<elem id="246">   543,   529,   619,   629,   544,   530,   620,   630</elem>
			<elem id="247">   557,   543,   629,   639,   558,   544,   630,   640</elem>
			<elem id="248">   559,   399,   401,   561,   560,   400,   402,   562</elem>
			<elem id="249">   569,   559,   561,   571,   570,   560,   562,   572</elem>
			<elem id="250">   579,   569,   571,   581,   580,   570,   572,   582</elem>
			<elem id="251">   589,   579,   581,   591,   590,   580,   582,   592</elem>
			<elem id="252">   599,   589,   591,   601,   600,   590,   592,   602</elem>
			<elem id="253">   609,   599,   601,   611,   610,   600,   602,   612</elem>
			<elem id="254">   619,   609,   611,   621,   620,   610,   612,   622</elem>
			<elem id="255">   629,   619,   621,   631,   630,   620,   622,   632</elem>
			<elem id="256">   639,   629,   631,   641,   640,   630,   632,   642</elem>
			<elem id="257">   561,   401,   403,   563,   562,   402,   404,   564</elem>
			<elem id="258">   571,   561,   563,   573,   572,   562,   564,   574</elem>
<!-- ... 25 like lines cut -->
		</Elements>
		<Elements type="hex8" mat="12">
			<elem id="284">   567,   407,   409,   649,   568,   408,   410,   650</elem>
			<elem id="285">   577,   567,   649,   651,   578,   568,   650,   652</elem>
			<elem id="286">   587,   577,   651,   653,   588,   578,   652,   654</elem>
			<elem id="287">   597,   587,   653,   655,   598,   588,   654,   656</elem>
			<elem id="288">   607,   597,   655,   657,   608,   598,   656,   658</elem>
			<elem id="289">   617,   607,   657,   659,   618,   608,   658,   660</elem>
			<elem id="290">   627,   617,   659,   661,   628,   618,   660,   662</elem>
			<elem id="291">   637,   627,   661,   663,   638,   628,   662,   664</elem>
			<elem id="292">   647,   637,   663,   665,   648,   638,   664,   666</elem>
		</Elements>
		<Elements type="hex8" mat="14">
			<elem id="293">   649,   409,   411,   667,   650,   410,   412,   668</elem>
			<elem id="294">   651,   649,   667,   681,   652,   650,   668,   682</elem>
			<elem id="295">   653,   651,   681,   695,   654,   652,   682,   696</elem>
			<elem id="296">   655,   653,   695,   709,   656,   654,   696,   710</elem>
			<elem id="297">   657,   655,   709,   723,   658,   656,   710,   724</elem>
			<elem id="298">   659,   657,   723,   737,   660,   658,   724,   738</elem>
			<elem id="299">   661,   659,   737,   751,   662,   660,   738,   752</elem>
			<elem id="300">   663,   661,   751,   765,   664,   662,   752,   766</elem>
			<elem id="301">   665,   663,   765,   779,   666,   664,   766,   780</elem>
			<elem id="302">   667,   411,   413,   669,   668,   412,   414,   670</elem>
			<elem id="303">   681,   667,   669,   683,   682,   668,   670,   684</elem>
			<elem id="304">   695,   681,   683,   697,   696,   682,   684,   698</elem>
			<elem id="305">   709,   695,   697,   711,   710,   696,   698,   712</elem>
			<elem id="306">   723,   709,   711,   725,   724,   710,   712,   726</elem>
			<elem id="307">   737,   723,   725,   739,   738,   724,   726,   740</elem>
			<elem id="308">   751,   737,   739,   753,   752,   738,   740,   754</elem>
			<elem id="309">   765,   751,   753,   767,   766,   752,   754,   768</elem>
			<elem id="310">   779,   765,   767,   781,   780,   766,   768,   782</elem>
			<elem id="311">   669,   413,   415,   671,   670,   414,   416,   672</elem>
			<elem id="312">   683,   669,   671,   685,   684,   670,   672,   686</elem>
<!-- ... 79 like lines cut -->
		</Elements>
		<Elements type="hex8" mat="11">
			<elem id="392">   865,   545,   547,   867,   866,   546,   548,   868</elem>
			<elem id="393">   879,   865,   867,   881,   880,   866,   868,   882</elem>
			<elem id="394">   893,   879,   881,   895,   894,   880,   882,   896</elem>
			<elem id="395">   907,   893,   895,   909,   908,   894,   896,   910</elem>
			<elem id="396">   921,   907,   909,   923,   922,   908,   910,   924</elem>
			<elem id="397">   935,   921,   923,   937,   936,   922,   924,   938</elem>
			<elem id="398">   867,   547,   549,   869,   868,   548,   550,   870</elem>
			<elem id="399">   881,   867,   869,   883,   882,   868,   870,   884</elem>
			<elem id="400">   895,   881,   883,   897,   896,   882,   884,   898</elem>
			<elem id="401">   909,   895,   897,   911,   910,   896,   898,   912</elem>
			<elem id="402">   923,   909,   911,   925,   924,   910,   912,   926</elem>
			<elem id="403">   937,   923,   925,   939,   938,   924,   926,   940</elem>
			<elem id="404">   869,   549,   551,   871,   870,   550,   552,   872</elem>
			<elem id="405">   883,   869,   871,   885,   884,   870,   872,   886</elem>
			<elem id="406">   897,   883,   885,   899,   898,   884,   886,   900</elem>
			<elem id="407">   911,   897,   899,   913,   912,   898,   900,   914</elem>
			<elem id="408">   925,   911,   913,   927,   926,   912,   914,   928</elem>
			<elem id="409">   939,   925,   927,   941,   940,   926,   928,   942</elem>
			<elem id="410">   871,   551,   553,   873,   872,   552,   554,   874</elem>
			<elem id="411">   885,   871,   873,   887,   886,   872,   874,   888</elem>
<!-- ... 16 like lines cut -->
		</Elements>
		<Elements type="hex8" mat="3">
			<elem id="428">   877,   557,   639,   949,   878,   558,   640,   950</elem>
			<elem id="429">   891,   877,   949,   959,   892,   878,   950,   960</elem>
			<elem id="430">   905,   891,   959,   969,   906,   892,   960,   970</elem>
			<elem id="431">   919,   905,   969,   979,   920,   906,   970,   980</elem>
			<elem id="432">   933,   919,   979,   989,   934,   920,   980,   990</elem>
			<elem id="433">   947,   933,   989,   999,   948,   934,   990,  1000</elem>
			<elem id="434">   949,   639,   641,   951,   950,   640,   642,   952</elem>
			<elem id="435">   959,   949,   951,   961,   960,   950,   952,   962</elem>
			<elem id="436">   969,   959,   961,   971,   970,   960,   962,   972</elem>
			<elem id="437">   979,   969,   971,   981,   980,   970,   972,   982</elem>
			<elem id="438">   989,   979,   981,   991,   990,   980,   982,   992</elem>
			<elem id="439">   999,   989,   991,  1001,  1000,   990,   992,  1002</elem>
			<elem id="440">   951,   641,   643,   953,   952,   642,   644,   954</elem>
			<elem id="441">   961,   951,   953,   963,   962,   952,   954,   964</elem>
			<elem id="442">   971,   961,   963,   973,   972,   962,   964,   974</elem>
			<elem id="443">   981,   971,   973,   983,   982,   972,   974,   984</elem>
			<elem id="444">   991,   981,   983,   993,   992,   982,   984,   994</elem>
			<elem id="445">  1001,   991,   993,  1003,  1002,   992,   994,  1004</elem>
			<elem id="446">   953,   643,   645,   955,   954,   644,   646,   956</elem>
			<elem id="447">   963,   953,   955,   965,   964,   954,   956,   966</elem>
<!-- ... 10 like lines cut -->
		</Elements>
		<Elements type="hex8" mat="11">
			<elem id="458">   945,   947,   999,  1009,   946,   948,  1000,  1010</elem>
			<elem id="459">   943,   945,  1009,  1019,   944,   946,  1010,  1020</elem>
			<elem id="460">   941,   943,  1019,  1029,   942,   944,  1020,  1030</elem>
			<elem id="461">   939,   941,  1029,  1039,   940,   942,  1030,  1040</elem>
			<elem id="462">   937,   939,  1039,  1049,   938,   940,  1040,  1050</elem>
			<elem id="463">   935,   937,  1049,  1059,   936,   938,  1050,  1060</elem>
			<elem id="464">  1009,   999,  1001,  1011,  1010,  1000,  1002,  1012</elem>
			<elem id="465">  1019,  1009,  1011,  1021,  1020,  1010,  1012,  1022</elem>
			<elem id="466">  1029,  1019,  1021,  1031,  1030,  1020,  1022,  1032</elem>
			<elem id="467">  1039,  1029,  1031,  1041,  1040,  1030,  1032,  1042</elem>
			<elem id="468">  1049,  1039,  1041,  1051,  1050,  1040,  1042,  1052</elem>
			<elem id="469">  1059,  1049,  1051,  1061,  1060,  1050,  1052,  1062</elem>
			<elem id="470">  1011,  1001,  1003,  1013,  1012,  1002,  1004,  1014</elem>
			<elem id="471">  1021,  1011,  1013,  1023,  1022,  1012,  1014,  1024</elem>
			<elem id="472">  1031,  1021,  1023,  1033,  1032,  1022,  1024,  1034</elem>
			<elem id="473">  1041,  1031,  1033,  1043,  1042,  1032,  1034,  1044</elem>
			<elem id="474">  1051,  1041,  1043,  1053,  1052,  1042,  1044,  1054</elem>
			<elem id="475">  1061,  1051,  1053,  1063,  1062,  1052,  1054,  1064</elem>
			<elem id="476">  1013,  1003,  1005,  1015,  1014,  1004,  1006,  1016</elem>
			<elem id="477">  1023,  1013,  1015,  1025,  1024,  1014,  1016,  1026</elem>
<!-- ... 76 like lines cut -->
		</Elements>
		<Elements type="hex8" mat="6">
			<elem id="554">  1095,  1081,  1237,  1251,  1096,  1082,  1238,  1252</elem>
			<elem id="555">  1109,  1095,  1251,  1265,  1110,  1096,  1252,  1266</elem>
			<elem id="556">  1123,  1109,  1265,  1279,  1124,  1110,  1266,  1280</elem>
			<elem id="557">  1137,  1123,  1279,  1293,  1138,  1124,  1280,  1294</elem>
			<elem id="558">  1151,  1137,  1293,  1307,  1152,  1138,  1294,  1308</elem>
			<elem id="559">  1165,  1151,  1307,  1321,  1166,  1152,  1308,  1322</elem>
			<elem id="560">  1179,  1165,  1321,  1335,  1180,  1166,  1322,  1336</elem>
			<elem id="561">  1193,  1179,  1335,  1349,  1194,  1180,  1336,  1350</elem>
			<elem id="562">  1207,  1193,  1349,  1363,  1208,  1194,  1350,  1364</elem>
			<elem id="563">  1221,  1207,  1363,  1377,  1222,  1208,  1364,  1378</elem>
			<elem id="564">  1235,  1221,  1377,  1391,  1236,  1222,  1378,  1392</elem>
			<elem id="565">  1251,  1237,  1239,  1253,  1252,  1238,  1240,  1254</elem>
			<elem id="566">  1265,  1251,  1253,  1267,  1266,  1252,  1254,  1268</elem>
			<elem id="567">  1279,  1265,  1267,  1281,  1280,  1266,  1268,  1282</elem>
			<elem id="568">  1293,  1279,  1281,  1295,  1294,  1280,  1282,  1296</elem>
			<elem id="569">  1307,  1293,  1295,  1309,  1308,  1294,  1296,  1310</elem>
			<elem id="570">  1321,  1307,  1309,  1323,  1322,  1308,  1310,  1324</elem>
			<elem id="571">  1335,  1321,  1323,  1337,  1336,  1322,  1324,  1338</elem>
			<elem id="572">  1349,  1335,  1337,  1351,  1350,  1336,  1338,  1352</elem>
			<elem id="573">  1363,  1349,  1351,  1365,  1364,  1350,  1352,  1366</elem>
<!-- ... 57 like lines cut -->
		</Elements>
		<Elements type="hex8" mat="11">
			<elem id="631">  1263,  1249,  1405,  1413,  1264,  1250,  1406,  1414</elem>
			<elem id="632">  1277,  1263,  1413,  1421,  1278,  1264,  1414,  1422</elem>
			<elem id="633">  1291,  1277,  1421,  1429,  1292,  1278,  1422,  1430</elem>
			<elem id="634">  1305,  1291,  1429,  1437,  1306,  1292,  1430,  1438</elem>
			<elem id="635">  1319,  1305,  1437,  1445,  1320,  1306,  1438,  1446</elem>
			<elem id="636">  1333,  1319,  1445,  1453,  1334,  1320,  1446,  1454</elem>
			<elem id="637">  1347,  1333,  1453,  1461,  1348,  1334,  1454,  1462</elem>
			<elem id="638">  1361,  1347,  1461,  1469,  1362,  1348,  1462,  1470</elem>
			<elem id="639">  1375,  1361,  1469,  1477,  1376,  1362,  1470,  1478</elem>
			<elem id="640">  1389,  1375,  1477,  1485,  1390,  1376,  1478,  1486</elem>
			<elem id="641">  1403,  1389,  1485,  1493,  1404,  1390,  1486,  1494</elem>
			<elem id="642">  1413,  1405,  1407,  1415,  1414,  1406,  1408,  1416</elem>
			<elem id="643">  1421,  1413,  1415,  1423,  1422,  1414,  1416,  1424</elem>
			<elem id="644">  1429,  1421,  1423,  1431,  1430,  1422,  1424,  1432</elem>
			<elem id="645">  1437,  1429,  1431,  1439,  1438,  1430,  1432,  1440</elem>
			<elem id="646">  1445,  1437,  1439,  1447,  1446,  1438,  1440,  1448</elem>
			<elem id="647">  1453,  1445,  1447,  1455,  1454,  1446,  1448,  1456</elem>
			<elem id="648">  1461,  1453,  1455,  1463,  1462,  1454,  1456,  1464</elem>
			<elem id="649">  1469,  1461,  1463,  1471,  1470,  1462,  1464,  1472</elem>
			<elem id="650">  1477,  1469,  1471,  1479,  1478,  1470,  1472,  1480</elem>
<!-- ... 30 like lines cut -->
		</Elements>
		<Elements type="hex8" mat="15">
			<elem id="681">  1513,  1235,  1391,  1515,  1514,  1236,  1392,  1516</elem>
			<elem id="682">  1515,  1391,  1393,  1517,  1516,  1392,  1394,  1518</elem>
			<elem id="683">  1517,  1393,  1395,  1519,  1518,  1394,  1396,  1520</elem>
			<elem id="684">  1519,  1395,  1397,  1521,  1520,  1396,  1398,  1522</elem>
			<elem id="685">  1521,  1397,  1399,  1523,  1522,  1398,  1400,  1524</elem>
			<elem id="686">  1523,  1399,  1401,  1525,  1524,  1400,  1402,  1526</elem>
			<elem id="687">  1525,  1401,  1403,  1527,  1526,  1402,  1404,  1528</elem>
		</Elements>
		<Elements type="hex8" mat="11">
			<elem id="688">  1527,  1403,  1493,  1529,  1528,  1404,  1494,  1530</elem>
			<elem id="689">  1529,  1493,  1495,  1531,  1530,  1494,  1496,  1532</elem>
			<elem id="690">  1531,  1495,  1497,  1533,  1532,  1496,  1498,  1534</elem>
			<elem id="691">  1533,  1497,  1499,  1535,  1534,  1498,  1500,  1536</elem>
			<elem id="692">  1537,  1501,  1503,  1539,  1538,  1502,  1504,  1540</elem>
			<elem id="693">  1551,  1537,  1539,  1553,  1552,  1538,  1540,  1554</elem>
			<elem id="694">  1565,  1551,  1553,  1567,  1566,  1552,  1554,  1568</elem>
			<elem id="695">  1579,  1565,  1567,  1581,  1580,  1566,  1568,  1582</elem>
			<elem id="696">  1593,  1579,  1581,  1595,  1594,  1580,  1582,  1596</elem>
			<elem id="697">  1607,  1593,  1595,  1609,  1608,  1594,  1596,  1610</elem>
			<elem id="698">  1621,  1607,  1609,  1623,  1622,  1608,  1610,  1624</elem>
			<elem id="699">  1539,  1503,  1505,  1541,  1540,  1504,  1506,  1542</elem>
			<elem id="700">  1553,  1539,  1541,  1555,  1554,  1540,  1542,  1556</elem>
			<elem id="701">  1567,  1553,  1555,  1569,  1568,  1554,  1556,  1570</elem>
			<elem id="702">  1581,  1567,  1569,  1583,  1582,  1568,  1570,  1584</elem>
			<elem id="703">  1595,  1581,  1583,  1597,  1596,  1582,  1584,  1598</elem>
			<elem id="704">  1609,  1595,  1597,  1611,  1610,  1596,  1598,  1612</elem>
			<elem id="705">  1623,  1609,  1611,  1625,  1624,  1610,  1612,  1626</elem>
			<elem id="706">  1541,  1505,  1507,  1543,  1542,  1506,  1508,  1544</elem>
			<elem id="707">  1555,  1541,  1543,  1557,  1556,  1542,  1544,  1558</elem>
<!-- ... 26 like lines cut -->
		</Elements>
		<Elements type="hex8" mat="16">
			<elem id="734">  1549,  1513,  1515,  1635,  1550,  1514,  1516,  1636</elem>
			<elem id="735">  1563,  1549,  1635,  1649,  1564,  1550,  1636,  1650</elem>
			<elem id="736">  1577,  1563,  1649,  1663,  1578,  1564,  1650,  1664</elem>
			<elem id="737">  1591,  1577,  1663,  1677,  1592,  1578,  1664,  1678</elem>
			<elem id="738">  1605,  1591,  1677,  1691,  1606,  1592,  1678,  1692</elem>
			<elem id="739">  1619,  1605,  1691,  1705,  1620,  1606,  1692,  1706</elem>
			<elem id="740">  1633,  1619,  1705,  1719,  1634,  1620,  1706,  1720</elem>
			<elem id="741">  1635,  1515,  1517,  1637,  1636,  1516,  1518,  1638</elem>
			<elem id="742">  1649,  1635,  1637,  1651,  1650,  1636,  1638,  1652</elem>
			<elem id="743">  1663,  1649,  1651,  1665,  1664,  1650,  1652,  1666</elem>
			<elem id="744">  1677,  1663,  1665,  1679,  1678,  1664,  1666,  1680</elem>
			<elem id="745">  1691,  1677,  1679,  1693,  1692,  1678,  1680,  1694</elem>
			<elem id="746">  1705,  1691,  1693,  1707,  1706,  1692,  1694,  1708</elem>
			<elem id="747">  1719,  1705,  1707,  1721,  1720,  1706,  1708,  1722</elem>
			<elem id="748">  1637,  1517,  1519,  1639,  1638,  1518,  1520,  1640</elem>
			<elem id="749">  1651,  1637,  1639,  1653,  1652,  1638,  1640,  1654</elem>
			<elem id="750">  1665,  1651,  1653,  1667,  1666,  1652,  1654,  1668</elem>
			<elem id="751">  1679,  1665,  1667,  1681,  1680,  1666,  1668,  1682</elem>
			<elem id="752">  1693,  1679,  1681,  1695,  1694,  1680,  1682,  1696</elem>
			<elem id="753">  1707,  1693,  1695,  1709,  1708,  1694,  1696,  1710</elem>
<!-- ... 29 like lines cut -->
		</Elements>
		<Elements type="hex8" mat="11">
			<elem id="783">  1647,  1527,  1529,  1733,  1648,  1528,  1530,  1734</elem>
			<elem id="784">  1661,  1647,  1733,  1741,  1662,  1648,  1734,  1742</elem>
			<elem id="785">  1675,  1661,  1741,  1749,  1676,  1662,  1742,  1750</elem>
			<elem id="786">  1689,  1675,  1749,  1757,  1690,  1676,  1750,  1758</elem>
			<elem id="787">  1703,  1689,  1757,  1765,  1704,  1690,  1758,  1766</elem>
			<elem id="788">  1717,  1703,  1765,  1773,  1718,  1704,  1766,  1774</elem>
			<elem id="789">  1731,  1717,  1773,  1781,  1732,  1718,  1774,  1782</elem>
			<elem id="790">  1733,  1529,  1531,  1735,  1734,  1530,  1532,  1736</elem>
			<elem id="791">  1741,  1733,  1735,  1743,  1742,  1734,  1736,  1744</elem>
			<elem id="792">  1749,  1741,  1743,  1751,  1750,  1742,  1744,  1752</elem>
			<elem id="793">  1757,  1749,  1751,  1759,  1758,  1750,  1752,  1760</elem>
			<elem id="794">  1765,  1757,  1759,  1767,  1766,  1758,  1760,  1768</elem>
			<elem id="795">  1773,  1765,  1767,  1775,  1774,  1766,  1768,  1776</elem>
			<elem id="796">  1781,  1773,  1775,  1783,  1782,  1774,  1776,  1784</elem>
			<elem id="797">  1735,  1531,  1533,  1737,  1736,  1532,  1534,  1738</elem>
			<elem id="798">  1743,  1735,  1737,  1745,  1744,  1736,  1738,  1746</elem>
			<elem id="799">  1751,  1743,  1745,  1753,  1752,  1744,  1746,  1754</elem>
			<elem id="800">  1759,  1751,  1753,  1761,  1760,  1752,  1754,  1762</elem>
			<elem id="801">  1767,  1759,  1761,  1769,  1768,  1760,  1762,  1770</elem>
			<elem id="802">  1775,  1767,  1769,  1777,  1776,  1768,  1770,  1778</elem>
<!-- ... 26 like lines cut -->
		</Elements>
		<Elements type="hex8" mat="7">
			<elem id="829">   193,  1633,  1719,   209,   194,  1634,  1720,   210</elem>
			<elem id="830">   209,  1719,  1721,   211,   210,  1720,  1722,   212</elem>
			<elem id="831">   211,  1721,  1723,   213,   212,  1722,  1724,   214</elem>
			<elem id="832">   213,  1723,  1725,   215,   214,  1724,  1726,   216</elem>
			<elem id="833">   215,  1725,  1727,   217,   216,  1726,  1728,   218</elem>
			<elem id="834">   217,  1727,  1729,   219,   218,  1728,  1730,   220</elem>
			<elem id="835">   219,  1729,  1731,   221,   220,  1730,  1732,   222</elem>
		</Elements>
		<Elements type="hex8" mat="11">
			<elem id="836">   221,  1731,  1781,   321,   222,  1732,  1782,   322</elem>
			<elem id="837">   321,  1781,  1783,   323,   322,  1782,  1784,   324</elem>
			<elem id="838">   323,  1783,  1785,   325,   324,  1784,  1786,   326</elem>
			<elem id="839">   325,  1785,  1787,   327,   326,  1786,  1788,   328</elem>
			<elem id="840">  1823,  1807,  1809,  1825,  1824,  1808,  1810,  1826</elem>
			<elem id="841">  1839,  1823,  1825,  1841,  1840,  1824,  1826,  1842</elem>
			<elem id="842">  1825,  1809,  1811,  1827,  1826,  1810,  1812,  1828</elem>
			<elem id="843">  1841,  1825,  1827,  1843,  1842,  1826,  1828,  1844</elem>
			<elem id="844">  1827,  1811,  1813,  1829,  1828,  1812,  1814,  1830</elem>
			<elem id="845">  1843,  1827,  1829,  1845,  1844,  1828,  1830,  1846</elem>
			<elem id="846">  1829,  1813,  1815,  1831,  1830,  1814,  1816,  1832</elem>
			<elem id="847">  1845,  1829,  1831,  1847,  1846,  1830,  1832,  1848</elem>
			<elem id="848">  1831,  1815,  1817,  1833,  1832,  1816,  1818,  1834</elem>
			<elem id="849">  1847,  1831,  1833,  1849,  1848,  1832,  1834,  1850</elem>
			<elem id="850">  1833,  1817,  1819,  1835,  1834,  1818,  1820,  1836</elem>
			<elem id="851">  1849,  1833,  1835,  1851,  1850,  1834,  1836,  1852</elem>
			<elem id="852">  1835,  1819,  1821,  1837,  1836,  1820,  1822,  1838</elem>
			<elem id="853">  1851,  1835,  1837,  1853,  1852,  1836,  1838,  1854</elem>
			<elem id="854">  1837,  1821,  1855,  1863,  1838,  1822,  1856,  1864</elem>
			<elem id="855">  1853,  1837,  1863,  1871,  1854,  1838,  1864,  1872</elem>
<!-- ... 16 like lines cut -->
		</Elements>
		<Elements type="hex8" mat="4">
			<elem id="872">  1883,  1839,  1841,  1909,  1884,  1840,  1842,  1910</elem>
			<elem id="873">  1889,  1883,  1909,  1923,  1890,  1884,  1910,  1924</elem>
			<elem id="874">  1895,  1889,  1923,  1937,  1896,  1890,  1924,  1938</elem>
			<elem id="875">  1901,  1895,  1937,  1951,  1902,  1896,  1938,  1952</elem>
			<elem id="876">  1907,  1901,  1951,  1965,  1908,  1902,  1952,  1966</elem>
			<elem id="877">  1909,  1841,  1843,  1911,  1910,  1842,  1844,  1912</elem>
			<elem id="878">  1923,  1909,  1911,  1925,  1924,  1910,  1912,  1926</elem>
			<elem id="879">  1937,  1923,  1925,  1939,  1938,  1924,  1926,  1940</elem>
			<elem id="880">  1951,  1937,  1939,  1953,  1952,  1938,  1940,  1954</elem>
			<elem id="881">  1965,  1951,  1953,  1967,  1966,  1952,  1954,  1968</elem>
			<elem id="882">  1911,  1843,  1845,  1913,  1912,  1844,  1846,  1914</elem>
			<elem id="883">  1925,  1911,  1913,  1927,  1926,  1912,  1914,  1928</elem>
			<elem id="884">  1939,  1925,  1927,  1941,  1940,  1926,  1928,  1942</elem>
			<elem id="885">  1953,  1939,  1941,  1955,  1954,  1940,  1942,  1956</elem>
			<elem id="886">  1967,  1953,  1955,  1969,  1968,  1954,  1956,  1970</elem>
			<elem id="887">  1913,  1845,  1847,  1915,  1914,  1846,  1848,  1916</elem>
			<elem id="888">  1927,  1913,  1915,  1929,  1928,  1914,  1916,  1930</elem>
			<elem id="889">  1941,  1927,  1929,  1943,  1942,  1928,  1930,  1944</elem>
			<elem id="890">  1955,  1941,  1943,  1957,  1956,  1942,  1944,  1958</elem>
			<elem id="891">  1969,  1955,  1957,  1971,  1970,  1956,  1958,  1972</elem>
<!-- ... 15 like lines cut -->
		</Elements>
		<Elements type="hex8" mat="11">
			<elem id="907">  1921,  1853,  1871,  1979,  1922,  1854,  1872,  1980</elem>
			<elem id="908">  1935,  1921,  1979,  1987,  1936,  1922,  1980,  1988</elem>
			<elem id="909">  1949,  1935,  1987,  1995,  1950,  1936,  1988,  1996</elem>
			<elem id="910">  1963,  1949,  1995,  2003,  1964,  1950,  1996,  2004</elem>
			<elem id="911">  1977,  1963,  2003,  2011,  1978,  1964,  2004,  2012</elem>
			<elem id="912">  1979,  1871,  1873,  1981,  1980,  1872,  1874,  1982</elem>
			<elem id="913">  1987,  1979,  1981,  1989,  1988,  1980,  1982,  1990</elem>
			<elem id="914">  1995,  1987,  1989,  1997,  1996,  1988,  1990,  1998</elem>
			<elem id="915">  2003,  1995,  1997,  2005,  2004,  1996,  1998,  2006</elem>
			<elem id="916">  2011,  2003,  2005,  2013,  2012,  2004,  2006,  2014</elem>
			<elem id="917">  1981,  1873,  1875,  1983,  1982,  1874,  1876,  1984</elem>
			<elem id="918">  1989,  1981,  1983,  1991,  1990,  1982,  1984,  1992</elem>
			<elem id="919">  1997,  1989,  1991,  1999,  1998,  1990,  1992,  2000</elem>
			<elem id="920">  2005,  1997,  1999,  2007,  2006,  1998,  2000,  2008</elem>
			<elem id="921">  2013,  2005,  2007,  2015,  2014,  2006,  2008,  2016</elem>
			<elem id="922">  1983,  1875,  1877,  1985,  1984,  1876,  1878,  1986</elem>
			<elem id="923">  1991,  1983,  1985,  1993,  1992,  1984,  1986,  1994</elem>
			<elem id="924">  1999,  1991,  1993,  2001,  2000,  1992,  1994,  2002</elem>
			<elem id="925">  2007,  1999,  2001,  2009,  2008,  2000,  2002,  2010</elem>
			<elem id="926">  2015,  2007,  2009,  2017,  2016,  2008,  2010,  2018</elem>
			<elem id="927">  2019,  1903,  1905,  2021,  2020,  1904,  1906,  2022</elem>
			<elem id="928">  2021,  1905,  1907,  2023,  2022,  1906,  1908,  2024</elem>
		</Elements>
		<Elements type="hex8" mat="10">
			<elem id="929">  2023,  1907,  1965,  2025,  2024,  1908,  1966,  2026</elem>
			<elem id="930">  2025,  1965,  1967,  2027,  2026,  1966,  1968,  2028</elem>
			<elem id="931">  2027,  1967,  1969,  2029,  2028,  1968,  1970,  2030</elem>
			<elem id="932">  2029,  1969,  1971,  2031,  2030,  1970,  1972,  2032</elem>
			<elem id="933">  2031,  1971,  1973,  2033,  2032,  1972,  1974,  2034</elem>
			<elem id="934">  2033,  1973,  1975,  2035,  2034,  1974,  1976,  2036</elem>
			<elem id="935">  2035,  1975,  1977,  2037,  2036,  1976,  1978,  2038</elem>
		</Elements>
		<Elements type="hex8" mat="11">
			<elem id="936">  2037,  1977,  2011,  2039,  2038,  1978,  2012,  2040</elem>
			<elem id="937">  2039,  2011,  2013,  2041,  2040,  2012,  2014,  2042</elem>
			<elem id="938">  2041,  2013,  2015,  2043,  2042,  2014,  2016,  2044</elem>
			<elem id="939">  2043,  2015,  2017,  2045,  2044,  2016,  2018,  2046</elem>
			<elem id="940">  2047,  2019,  2021,  2049,  2048,  2020,  2022,  2050</elem>
			<elem id="941">  2053,  2047,  2049,  2055,  2054,  2048,  2050,  2056</elem>
			<elem id="942">  2059,  2053,  2055,  2061,  2060,  2054,  2056,  2062</elem>
			<elem id="943">  2065,  2059,  2061,  2067,  2066,  2060,  2062,  2068</elem>
			<elem id="944">  2071,  2065,  2067,  2073,  2072,  2066,  2068,  2074</elem>
			<elem id="945">  2077,  2071,  2073,  2079,  2078,  2072,  2074,  2080</elem>
			<elem id="946">  2049,  2021,  2023,  2051,  2050,  2022,  2024,  2052</elem>
			<elem id="947">  2055,  2049,  2051,  2057,  2056,  2050,  2052,  2058</elem>
			<elem id="948">  2061,  2055,  2057,  2063,  2062,  2056,  2058,  2064</elem>
			<elem id="949">  2067,  2061,  2063,  2069,  2068,  2062,  2064,  2070</elem>
			<elem id="950">  2073,  2067,  2069,  2075,  2074,  2068,  2070,  2076</elem>
			<elem id="951">  2079,  2073,  2075,  2081,  2080,  2074,  2076,  2082</elem>
		</Elements>
		<Elements type="hex8" mat="9">		
			<elem id="952">  2051,  2023,  2025,  2083,  2052,  2024,  2026,  2084</elem>
			<elem id="953">  2057,  2051,  2083,  2097,  2058,  2052,  2084,  2098</elem>
			<elem id="954">  2063,  2057,  2097,  2111,  2064,  2058,  2098,  2112</elem>
			<elem id="955">  2069,  2063,  2111,  2125,  2070,  2064,  2112,  2126</elem>
			<elem id="956">  2075,  2069,  2125,  2139,  2076,  2070,  2126,  2140</elem>
			<elem id="957">  2081,  2075,  2139,  2153,  2082,  2076,  2140,  2154</elem>
			<elem id="958">  2083,  2025,  2027,  2085,  2084,  2026,  2028,  2086</elem>
			<elem id="959">  2097,  2083,  2085,  2099,  2098,  2084,  2086,  2100</elem>
			<elem id="960">  2111,  2097,  2099,  2113,  2112,  2098,  2100,  2114</elem>
			<elem id="961">  2125,  2111,  2113,  2127,  2126,  2112,  2114,  2128</elem>
			<elem id="962">  2139,  2125,  2127,  2141,  2140,  2126,  2128,  2142</elem>
			<elem id="963">  2153,  2139,  2141,  2155,  2154,  2140,  2142,  2156</elem>
			<elem id="964">  2085,  2027,  2029,  2087,  2086,  2028,  2030,  2088</elem>
			<elem id="965">  2099,  2085,  2087,  2101,  2100,  2086,  2088,  2102</elem>
			<elem id="966">  2113,  2099,  2101,  2115,  2114,  2100,  2102,  2116</elem>
			<elem id="967">  2127,  2113,  2115,  2129,  2128,  2114,  2116,  2130</elem>
			<elem id="968">  2141,  2127,  2129,  2143,  2142,  2128,  2130,  2144</elem>
			<elem id="969">  2155,  2141,  2143,  2157,  2156,  2142,  2144,  2158</elem>
			<elem id="970">  2087,  2029,  2031,  2089,  2088,  2030,  2032,  2090</elem>
			<elem id="971">  2101,  2087,  2089,  2103,  2102,  2088,  2090,  2104</elem>
<!-- ... 22 like lines cut -->
		</Elements>
		<Elements type="hex8" mat="11">		
			<elem id="994">  2095,  2037,  2039,  2167,  2096,  2038,  2040,  2168</elem>
			<elem id="995">  2109,  2095,  2167,  2175,  2110,  2096,  2168,  2176</elem>
			<elem id="996">  2123,  2109,  2175,  2183,  2124,  2110,  2176,  2184</elem>
			<elem id="997">  2137,  2123,  2183,  2191,  2138,  2124,  2184,  2192</elem>
			<elem id="998">  2151,  2137,  2191,  2199,  2152,  2138,  2192,  2200</elem>
			<elem id="999">  2165,  2151,  2199,  2207,  2166,  2152,  2200,  2208</elem>
			<elem id="1000">  2167,  2039,  2041,  2169,  2168,  2040,  2042,  2170</elem>
			<elem id="1001">  2175,  2167,  2169,  2177,  2176,  2168,  2170,  2178</elem>
			<elem id="1002">  2183,  2175,  2177,  2185,  2184,  2176,  2178,  2186</elem>
			<elem id="1003">  2191,  2183,  2185,  2193,  2192,  2184,  2186,  2194</elem>
			<elem id="1004">  2199,  2191,  2193,  2201,  2200,  2192,  2194,  2202</elem>
			<elem id="1005">  2207,  2199,  2201,  2209,  2208,  2200,  2202,  2210</elem>
			<elem id="1006">  2169,  2041,  2043,  2171,  2170,  2042,  2044,  2172</elem>
			<elem id="1007">  2177,  2169,  2171,  2179,  2178,  2170,  2172,  2180</elem>
			<elem id="1008">  2185,  2177,  2179,  2187,  2186,  2178,  2180,  2188</elem>
			<elem id="1009">  2193,  2185,  2187,  2195,  2194,  2186,  2188,  2196</elem>
			<elem id="1010">  2201,  2193,  2195,  2203,  2202,  2194,  2196,  2204</elem>
			<elem id="1011">  2209,  2201,  2203,  2211,  2210,  2202,  2204,  2212</elem>
			<elem id="1012">  2171,  2043,  2045,  2173,  2172,  2044,  2046,  2174</elem>
			<elem id="1013">  2179,  2171,  2173,  2181,  2180,  2172,  2174,  2182</elem>
<!-- ... 12 like lines cut -->
		</Elements>
		<Elements type="hex8" mat="5">
			<elem id="1026">  1081,  2081,  2153,  1237,  1082,  2082,  2154,  1238</elem>
			<elem id="1027">  1237,  2153,  2155,  1239,  1238,  2154,  2156,  1240</elem>
			<elem id="1028">  1239,  2155,  2157,  1241,  1240,  2156,  2158,  1242</elem>
			<elem id="1029">  1241,  2157,  2159,  1243,  1242,  2158,  2160,  1244</elem>
			<elem id="1030">  1243,  2159,  2161,  1245,  1244,  2160,  2162,  1246</elem>
			<elem id="1031">  1245,  2161,  2163,  1247,  1246,  2162,  2164,  1248</elem>
			<elem id="1032">  1247,  2163,  2165,  1249,  1248,  2164,  2166,  1250</elem>
		</Elements>
		<Elements type="hex8" mat="11">
			<elem id="1033">  1249,  2165,  2207,  1405,  1250,  2166,  2208,  1406</elem>
			<elem id="1034">  1405,  2207,  2209,  1407,  1406,  2208,  2210,  1408</elem>
			<elem id="1035">  1407,  2209,  2211,  1409,  1408,  2210,  2212,  1410</elem>
			<elem id="1036">  1409,  2211,  2213,  1411,  1410,  2212,  2214,  1412</elem>
		</Elements>
		<Elements type="hex8" mat="1">		
			<elem id="1037">  2223,  2224,  2225,  2226,  2227,  2228,  2229,  2230</elem>
		</Elements>
	</Geometry>
	<Boundary>
		<fix bc="z">
			<node id="1"/>
			<node id="2"/>
			<node id="3"/>
			<node id="4"/>
			<node id="5"/>
			<node id="6"/>
			<node id="7"/>
			<node id="8"/>
			<node id="9"/>
			<node id="10"/>
			<node id="11"/>
			<node id="12"/>
			<node id="13"/>
			<node id="14"/>
			<node id="15"/>
			<node id="16"/>
			<node id="17"/>
			<node id="18"/>
			<node id="19"/>
			<node id="20"/>
<!-- ... 2210 like lines cut -->
		</fix>
	</Boundary>
	<Contact>
		<contact type="rigid_wall">
			<laugon>0</laugon>
			<tolerance>0.01</tolerance>
			<penalty>0.1</penalty>
			<plane>0,1,0,20</plane>
			<surface>
				<quad4 id="1">    15,     1,     2,    16</quad4>
				<quad4 id="2">    29,    15,    16,    30</quad4>
				<quad4 id="3">    43,    29,    30,    44</quad4>
				<quad4 id="4">    57,    43,    44,    58</quad4>
				<quad4 id="5">    71,    57,    58,    72</quad4>
				<quad4 id="6">    85,    71,    72,    86</quad4>
				<quad4 id="7">    99,    85,    86,   100</quad4>
				<quad4 id="8">   385,    99,   100,   386</quad4>
				<quad4 id="9">   433,   385,   386,   434</quad4>
				<quad4 id="10">   447,   433,   434,   448</quad4>
				<quad4 id="11">   461,   447,   448,   462</quad4>
				<quad4 id="12">   475,   461,   462,   476</quad4>
				<quad4 id="13">   489,   475,   476,   490</quad4>
				<quad4 id="14">   503,   489,   490,   504</quad4>
				<quad4 id="15">   517,   503,   504,   518</quad4>
				<quad4 id="16">   531,   517,   518,   532</quad4>
				<quad4 id="17">   545,   531,   532,   546</quad4>
				<quad4 id="18">   815,   823,   824,   816</quad4>
				<quad4 id="19">   823,   831,   832,   824</quad4>
				<quad4 id="20">   831,   839,   840,   832</quad4>
<!-- ... 55 like lines cut -->
			</surface>
		</contact>
	</Contact>
	<Constraints>
		<rigid_body mat="1">
			<fixed bc="x"/>
			<fixed bc="y"/>
			<fixed bc="z"/>
			<fixed bc="Rx"/>
			<fixed bc="Ry"/>
			<fixed bc="Rz"/>
		</rigid_body>
		<rigid_body mat="2">
			<fixed bc="x"/>
			<fixed bc="y"/>
			<fixed bc="z"/>
			<fixed bc="Rx"/>
			<fixed bc="Ry"/>
			<fixed bc="Rz"/>
		</rigid_body>
		<rigid_body mat="3">
			<prescribed bc="x" lc="1">1</prescribed>
			<prescribed bc="y" lc="2">1</prescribed>
			<fixed bc="z"/>
			<fixed bc="Rx"/>
			<fixed bc="Ry"/>
			<prescribed bc="Rz" lc="3">1</prescribed>
		</rigid_body>
		<rigid_body mat="4">
			<fixed bc="z"/>
			<fixed bc="Rx"/>
			<fixed bc="Ry"/>
		</rigid_body>
		<rigid_body mat="6">
			<fixed bc="z"/>
			<fixed bc="Rx"/>
			<fixed bc="Ry"/>
			<fixed bc="Rz"/>
		</rigid_body>
		<rigid_body mat="7">
			<fixed bc="z"/>
			<fixed bc="Rx"/>
			<fixed bc="Ry"/>
		</rigid_body>
		<rigid_body mat="8">
			<fixed bc="z"/>
			<fixed bc="Rx"/>
			<fixed bc="Ry"/>
		</rigid_body>
		<rigid_body mat="9">
			<fixed bc="z"/>
			<fixed bc="Rx"/>
			<fixed bc="Ry"/>
		</rigid_body>
		<rigid_body mat="10">
			<fixed bc="z"/>
			<fixed bc="Rx"/>
			<fixed bc="Ry"/>
		</rigid_body>
		<rigid_body mat="12">
			<fixed bc="z"/>
			<fixed bc="Rx"/>
			<fixed bc="Ry"/>
		</rigid_body>
		<rigid_body mat="13">
			<fixed bc="z"/>
			<fixed bc="Rx"/>
			<fixed bc="Ry"/>
		</rigid_body>
		<rigid_body mat="14">
			<fixed bc="z"/>
			<fixed bc="Rx"/>
			<fixed bc="Ry"/>
		</rigid_body>
		<rigid_body mat="15">
			<fixed bc="z"/>
			<fixed bc="Rx"/>
			<fixed bc="Ry"/>
		</rigid_body>
		<rigid_body mat="16">
			<fixed bc="z"/>
			<fixed bc="Rx"/>
			<fixed bc="Ry"/>
		</rigid_body>
	</Constraints>
	<LoadData>
		<loadcurve id="1">
			<loadpoint>0,0</loadpoint>
			<loadpoint>10,-5</loadpoint>
			<loadpoint>20,0.082</loadpoint>
			<loadpoint>30,43.068</loadpoint>
			<loadpoint>40,50.112</loadpoint>
			<loadpoint>50,156.157</loadpoint>
			<loadpoint>60,160</loadpoint>
		</loadcurve>
		<loadcurve id="2">
			<loadpoint>0,0</loadpoint>
			<loadpoint>10,5</loadpoint>
			<loadpoint>20,-4.41</loadpoint>
			<loadpoint>30,-7.219</loadpoint>
			<loadpoint>40,5.583</loadpoint>
			<loadpoint>50,104.343</loadpoint>
			<loadpoint>60,110</loadpoint>
		</loadcurve>
		<loadcurve id="3">
			<loadpoint>0,0</loadpoint>
			<loadpoint>10,0.4</loadpoint>
			<loadpoint>20,0.4</loadpoint>
			<loadpoint>30,0</loadpoint>
			<loadpoint>40,-0.1</loadpoint>
			<loadpoint>50,-0.7</loadpoint>
			<loadpoint>60,-0.7</loadpoint>
		</loadcurve>
		<loadcurve id="4" type="step">
			<loadpoint>0,0</loadpoint>
			<loadpoint>23,3</loadpoint>
			<loadpoint>60,3</loadpoint>
		</loadcurve>
	</LoadData>
	<Output>
		<plotfile type="febio"></plotfile>
		<logfile>
			<element_data data="Ey">412</element_data>
		</logfile>
	</Output>
</febio_spec>
