<?xml version="1.0" encoding="ISO-8859-1"?>
<!--
Problem Description:
	A 10 x 10 element planar block rises (with compression) in plane strain
	over a ramped rigid bump.
Main Features:
	Sliding with gaps contact
Secondary Features:
	Augmented Lagrangian
	Plane strain
Materials:
	Mooney-Rivlin
	Rigid Body
Degrees of Freedom: 462
Results:
	Solver: Pardiso
	Steps Completed: 24
	Equilibrium Iterations: 185
	Right Hand Evaluations: 257
	Siffness Reformations: 185
	Other:
		The left bottom corner (node 2) has a y-displacement of 0.030 at time t=1.2.
 
Comments:
	This model has significant pentration without using Augmented Lagrangian.  The sliding_with_gaps
	contact algorithm performed significantly better than the other three contact algorithms.
-->
<febio_spec version="2.0">
	<Module type="solid"/>
	<Control>
		<title>Planar Block and Ramp</title>
		<time_steps>24</time_steps>
		<step_size>0.1</step_size>
		<max_refs>100</max_refs>
		<max_ups>0</max_ups>
		<dtol>0.001</dtol>
		<etol>0.01</etol>
		<rtol>0</rtol>
		<lstol>999</lstol>
		<pressure_stiffness>0</pressure_stiffness>
		<plane_strain>1</plane_strain>
		<time_stepper>
			<dtmin>0.1</dtmin>
			<dtmax lc="1"></dtmax>
			<max_retries>5</max_retries>
			<opt_iter>24</opt_iter>
		</time_stepper>
		<analysis type="static"/>
	</Control>
	<Globals>
		<Constants>
			<T>0</T>
			<R>0</R>
			<Fc>0</Fc>
		</Constants>
	</Globals>
	<Material>
		<material id="1" name="Material 1" type="Mooney-Rivlin">
			<density>1</density>
			<c1>1</c1>
			<c2>0</c2>
			<k>100</k>
		</material>
		<material id="2" name="Material 2" type="rigid body">
			<density>1</density>
		</material>
	</Material>
	<Geometry>
		<Nodes>
			<node id="1">-1.2000000e+000,-2.0000000e-001, 0.0000000e+000</node>
			<node id="2">-1.2000000e+000,-2.0000000e-001, 1.0000000e-001</node>
			<node id="3">-1.2000000e+000,-1.0000000e-001, 0.0000000e+000</node>
			<node id="4">-1.2000000e+000,-1.0000000e-001, 1.0000000e-001</node>
			<node id="5">-1.2000000e+000, 0.0000000e+000, 0.0000000e+000</node>
			<node id="6">-1.2000000e+000, 0.0000000e+000, 1.0000000e-001</node>
			<node id="7">-1.2000000e+000, 1.0000000e-001, 0.0000000e+000</node>
			<node id="8">-1.2000000e+000, 1.0000000e-001, 1.0000000e-001</node>
			<node id="9">-1.2000000e+000, 2.0000000e-001, 0.0000000e+000</node>
			<node id="10">-1.2000000e+000, 2.0000000e-001, 1.0000000e-001</node>
			<node id="11">-1.2000000e+000, 3.0000000e-001, 0.0000000e+000</node>
			<node id="12">-1.2000000e+000, 3.0000000e-001, 1.0000000e-001</node>
			<node id="13">-1.2000000e+000, 4.0000000e-001, 0.0000000e+000</node>
			<node id="14">-1.2000000e+000, 4.0000000e-001, 1.0000000e-001</node>
			<node id="15">-1.2000000e+000, 5.0000000e-001, 0.0000000e+000</node>
			<node id="16">-1.2000000e+000, 5.0000000e-001, 1.0000000e-001</node>
			<node id="17">-1.2000000e+000, 6.0000000e-001, 0.0000000e+000</node>
			<node id="18">-1.2000000e+000, 6.0000000e-001, 1.0000000e-001</node>
			<node id="19">-1.2000000e+000, 7.0000000e-001, 0.0000000e+000</node>
			<node id="20">-1.2000000e+000, 7.0000000e-001, 1.0000000e-001</node>
<!-- ... 238 like lines cut -->
		</Nodes>
		<Elements type="hex8" mat="1" elset="Part23">
			<elem id="1">     1,    23,    25,     3,     2,    24,    26,     4</elem>
			<elem id="2">     3,    25,    27,     5,     4,    26,    28,     6</elem>
			<elem id="3">     5,    27,    29,     7,     6,    28,    30,     8</elem>
			<elem id="4">     7,    29,    31,     9,     8,    30,    32,    10</elem>
			<elem id="5">     9,    31,    33,    11,    10,    32,    34,    12</elem>
			<elem id="6">    11,    33,    35,    13,    12,    34,    36,    14</elem>
			<elem id="7">    13,    35,    37,    15,    14,    36,    38,    16</elem>
			<elem id="8">    15,    37,    39,    17,    16,    38,    40,    18</elem>
			<elem id="9">    17,    39,    41,    19,    18,    40,    42,    20</elem>
			<elem id="10">    19,    41,    43,    21,    20,    42,    44,    22</elem>
			<elem id="11">    23,    45,    47,    25,    24,    46,    48,    26</elem>
			<elem id="12">    25,    47,    49,    27,    26,    48,    50,    28</elem>
			<elem id="13">    27,    49,    51,    29,    28,    50,    52,    30</elem>
			<elem id="14">    29,    51,    53,    31,    30,    52,    54,    32</elem>
			<elem id="15">    31,    53,    55,    33,    32,    54,    56,    34</elem>
			<elem id="16">    33,    55,    57,    35,    34,    56,    58,    36</elem>
			<elem id="17">    35,    57,    59,    37,    36,    58,    60,    38</elem>
			<elem id="18">    37,    59,    61,    39,    38,    60,    62,    40</elem>
			<elem id="19">    39,    61,    63,    41,    40,    62,    64,    42</elem>
			<elem id="20">    41,    63,    65,    43,    42,    64,    66,    44</elem>
<!-- ... 80 like lines cut -->
		</Elements>
		<Elements type="hex8" mat="2" elset="Part24">
			<elem id="101">   243,   247,   249,   245,   244,   248,   250,   246</elem>
			<elem id="102">   247,   251,   253,   249,   248,   252,   254,   250</elem>
			<elem id="103">   251,   255,   257,   253,   252,   256,   258,   254</elem>
		</Elements>
		<Surface name="MasterSurface01">
			<quad4 id="1">   257,   253,   254,   258</quad4>
			<quad4 id="2">   253,   249,   250,   254</quad4>
			<quad4 id="3">   249,   245,   246,   250</quad4>
		</Surface>
		<Surface name="SlaveSurface01">
			<quad4 id="1">     1,    23,    24,     2</quad4>
			<quad4 id="2">    23,    45,    46,    24</quad4>
			<quad4 id="3">    45,    67,    68,    46</quad4>
			<quad4 id="4">    67,    89,    90,    68</quad4>
			<quad4 id="5">    89,   111,   112,    90</quad4>
			<quad4 id="6">   111,   133,   134,   112</quad4>
			<quad4 id="7">   133,   155,   156,   134</quad4>
			<quad4 id="8">   155,   177,   178,   156</quad4>
			<quad4 id="9">   177,   199,   200,   178</quad4>
			<quad4 id="10">   199,   221,   222,   200</quad4>
		</Surface>
	</Geometry>
	<Boundary>
		<fix bc="y">
			<node id="21"/>
			<node id="22"/>
			<node id="43"/>
			<node id="44"/>
			<node id="65"/>
			<node id="66"/>
			<node id="87"/>
			<node id="88"/>
			<node id="109"/>
			<node id="110"/>
			<node id="131"/>
			<node id="132"/>
			<node id="153"/>
			<node id="154"/>
			<node id="175"/>
			<node id="176"/>
			<node id="197"/>
			<node id="198"/>
			<node id="219"/>
			<node id="220"/>
			<node id="241"/>
			<node id="242"/>
		</fix>
		<prescribe bc="x" lc="2">
			<node id="21">1</node>
			<node id="22">1</node>
			<node id="43">1</node>
			<node id="44">1</node>
			<node id="65">1</node>
			<node id="66">1</node>
			<node id="87">1</node>
			<node id="88">1</node>
			<node id="109">1</node>
			<node id="110">1</node>
			<node id="131">1</node>
			<node id="132">1</node>
			<node id="153">1</node>
			<node id="154">1</node>
			<node id="175">1</node>
			<node id="176">1</node>
			<node id="197">1</node>
			<node id="198">1</node>
			<node id="219">1</node>
			<node id="220">1</node>
			<node id="241">1</node>
			<node id="242">1</node>
		</prescribe>
	</Boundary>
	<Contact>
		<contact type="sliding_with_gaps">
			<laugon>1</laugon>
			<tolerance>0.005</tolerance>
			<penalty>1</penalty>
			<two_pass>0</two_pass>
			<auto_penalty>1</auto_penalty>
			<fric_coeff>0</fric_coeff>
			<fric_penalty>0</fric_penalty>
			<search_tol>0.01</search_tol>
			<minaug>0</minaug>
			<maxaug>10</maxaug>
			<gaptol>0</gaptol>
			<seg_up>0</seg_up>
			<surface type="master" set="MasterSurface01"/>
			<surface type="slave" set="SlaveSurface01"/>
		</contact>
	</Contact>
	<Constraints>
		<rigid_body mat="2">
			<fixed bc="x"/>
			<fixed bc="y"/>
			<fixed bc="z"/>
			<fixed bc="Rx"/>
			<fixed bc="Ry"/>
			<fixed bc="Rz"/>
		</rigid_body>
	</Constraints>
	<LoadData>
		<loadcurve id="1" type="step">
			<loadpoint>0,0</loadpoint>
			<loadpoint>1.4,0.1</loadpoint>
			<loadpoint>2.4,0.1</loadpoint>
		</loadcurve>
		<loadcurve id="2" type="linear">
			<loadpoint>0,0</loadpoint>
			<loadpoint>2.4,2.4</loadpoint>
		</loadcurve>
	</LoadData>
	<Output>
		<plotfile type="febio"></plotfile>
		<logfile>
			<element_data data="Ex">33</element_data>
		</logfile>
	</Output>
</febio_spec>
