<?xml version="1.0" encoding="ISO-8859-1"?>
<!--
Problem Description:
	Two blocks undergo confined compression with non-conforming mesh contact
	between them.  The bottom block is defined with a variable thickness mesh.
Main Features:
	Sliding2 contact
Secondary Features:
	
Materials:
	Holmes-Mow
Degrees of Freedom: 600
Results:
	Solver: Pardiso
	Steps Completed: 20
	Equilibrium Iterations: 40
	Right Hand Evaluations: 60
	Siffness Reformations: 40
	Other:
		The contact surface has a y-displacement of -0.255 at time t=5000
 
Comments:
	
-->
<febio_spec version="2.0">
	<Module type="solid"/>
	<Control>
		<title>Confined Compression</title>
		<time_steps>20</time_steps>
		<step_size>250</step_size>
		<max_refs>99</max_refs>
		<max_ups>0</max_ups>
		<dtol>0.001</dtol>
		<etol>0.01</etol>
		<rtol>0</rtol>
		<lstol>0.9</lstol>
		<analysis type="static"/>
	</Control>
	<Globals>
		<Constants>
			<T>0</T>
			<R>0</R>
			<Fc>0</Fc>
		</Constants>
	</Globals>
	<Material>
		<material id="1" name="Material 1" type="Holmes-Mow">
			<density>1</density>
			<E>0.4</E>
			<v>0</v>
			<beta>0.35</beta>
		</material>
	</Material>
	<Geometry>
		<Nodes>
			<node id="1">-6.0000000e+000, 0.0000000e+000, 0.0000000e+000</node>
			<node id="2">-6.0000000e+000, 0.0000000e+000, 1.0000000e+000</node>
			<node id="3">-6.0000000e+000, 1.6666667e-001, 0.0000000e+000</node>
			<node id="4">-6.0000000e+000, 1.6666667e-001, 1.0000000e+000</node>
			<node id="5">-6.0000000e+000, 3.3333333e-001, 0.0000000e+000</node>
			<node id="6">-6.0000000e+000, 3.3333333e-001, 1.0000000e+000</node>
			<node id="7">-6.0000000e+000, 5.0000000e-001, 0.0000000e+000</node>
			<node id="8">-6.0000000e+000, 5.0000000e-001, 1.0000000e+000</node>
			<node id="9">-6.0000000e+000, 6.6666667e-001, 0.0000000e+000</node>
			<node id="10">-6.0000000e+000, 6.6666667e-001, 1.0000000e+000</node>
			<node id="11">-6.0000000e+000, 8.3333333e-001, 0.0000000e+000</node>
			<node id="12">-6.0000000e+000, 8.3333333e-001, 1.0000000e+000</node>
			<node id="13">-6.0000000e+000, 1.0000000e+000, 0.0000000e+000</node>
			<node id="14">-6.0000000e+000, 1.0000000e+000, 1.0000000e+000</node>
			<node id="15">-6.0000000e+000, 1.1666667e+000, 0.0000000e+000</node>
			<node id="16">-6.0000000e+000, 1.1666667e+000, 1.0000000e+000</node>
			<node id="17">-6.0000000e+000, 1.3333333e+000, 0.0000000e+000</node>
			<node id="18">-6.0000000e+000, 1.3333333e+000, 1.0000000e+000</node>
			<node id="19">-6.0000000e+000, 1.5000000e+000, 0.0000000e+000</node>
			<node id="20">-6.0000000e+000, 1.5000000e+000, 1.0000000e+000</node>
<!-- ... 368 like lines cut -->
		</Nodes>
		<Elements type="hex8" mat="1" elset="Part25">
			<elem id="1">     1,    27,    29,     3,     2,    28,    30,     4</elem>
			<elem id="2">     3,    29,    31,     5,     4,    30,    32,     6</elem>
			<elem id="3">     5,    31,    33,     7,     6,    32,    34,     8</elem>
			<elem id="4">     7,    33,    35,     9,     8,    34,    36,    10</elem>
			<elem id="5">     9,    35,    37,    11,    10,    36,    38,    12</elem>
			<elem id="6">    11,    37,    39,    13,    12,    38,    40,    14</elem>
			<elem id="7">    13,    39,    41,    15,    14,    40,    42,    16</elem>
			<elem id="8">    15,    41,    43,    17,    16,    42,    44,    18</elem>
			<elem id="9">    17,    43,    45,    19,    18,    44,    46,    20</elem>
			<elem id="10">    19,    45,    47,    21,    20,    46,    48,    22</elem>
			<elem id="11">    21,    47,    49,    23,    22,    48,    50,    24</elem>
			<elem id="12">    23,    49,    51,    25,    24,    50,    52,    26</elem>
			<elem id="13">    27,    53,    55,    29,    28,    54,    56,    30</elem>
			<elem id="14">    29,    55,    57,    31,    30,    56,    58,    32</elem>
			<elem id="15">    31,    57,    59,    33,    32,    58,    60,    34</elem>
			<elem id="16">    33,    59,    61,    35,    34,    60,    62,    36</elem>
			<elem id="17">    35,    61,    63,    37,    36,    62,    64,    38</elem>
			<elem id="18">    37,    63,    65,    39,    38,    64,    66,    40</elem>
			<elem id="19">    39,    65,    67,    41,    40,    66,    68,    42</elem>
			<elem id="20">    41,    67,    69,    43,    42,    68,    70,    44</elem>
<!-- ... 124 like lines cut -->
		</Elements>
	</Geometry>
	<Boundary>
		<fix bc="z">
			<node id="1"/>
			<node id="2"/>
			<node id="3"/>
			<node id="4"/>
			<node id="5"/>
			<node id="6"/>
			<node id="7"/>
			<node id="8"/>
			<node id="9"/>
			<node id="10"/>
			<node id="11"/>
			<node id="12"/>
			<node id="13"/>
			<node id="14"/>
			<node id="15"/>
			<node id="16"/>
			<node id="17"/>
			<node id="18"/>
			<node id="19"/>
			<node id="20"/>
<!-- ... 368 like lines cut -->
		</fix>
		<fix bc="x">
			<node id="1"/>
			<node id="2"/>
			<node id="3"/>
			<node id="4"/>
			<node id="5"/>
			<node id="6"/>
			<node id="7"/>
			<node id="8"/>
			<node id="9"/>
			<node id="10"/>
			<node id="11"/>
			<node id="12"/>
			<node id="13"/>
			<node id="14"/>
			<node id="15"/>
			<node id="16"/>
			<node id="17"/>
			<node id="18"/>
			<node id="19"/>
			<node id="20"/>
<!-- ... 148 like lines cut -->
		</fix>
		<fix bc="y">
			<node id="157"/>
			<node id="158"/>
			<node id="215"/>
			<node id="216"/>
			<node id="273"/>
			<node id="274"/>
			<node id="331"/>
			<node id="332"/>
		</fix>
		<prescribe bc="y" lc="1">
			<node id="25">1</node>
			<node id="26">1</node>
			<node id="51">1</node>
			<node id="52">1</node>
			<node id="77">1</node>
			<node id="78">1</node>
			<node id="103">1</node>
			<node id="104">1</node>
			<node id="129">1</node>
			<node id="130">1</node>
			<node id="155">1</node>
			<node id="156">1</node>
		</prescribe>
	</Boundary>
	<Contact>
		<contact type="sliding2">
			<laugon>0</laugon>
			<tolerance>0.05</tolerance>
			<two_pass>1</two_pass>
			<penalty>1</penalty>
			<symmetric_stiffness>0</symmetric_stiffness>
			<auto_penalty>1</auto_penalty>
			<surface type="slave" format="element face">
				<quad4 id="1"> 88, 3</quad4>
				<quad4 id="2"> 116, 3</quad4>
				<quad4 id="3"> 144, 3</quad4>
			</surface>
			<surface type="master" format="element face">
				<quad4 id="1"> 1, 1</quad4>
				<quad4 id="2"> 13, 1</quad4>
				<quad4 id="3"> 25, 1</quad4>
				<quad4 id="4"> 37, 1</quad4>
				<quad4 id="5"> 49, 1</quad4>
			</surface>
		</contact>
	</Contact>
	<LoadData>
		<loadcurve id="1" type="linear">
			<loadpoint>0,0</loadpoint>
			<loadpoint>5000,-0.5</loadpoint>
			<loadpoint>10000,-0.5</loadpoint>
		</loadcurve>
	</LoadData>
	<Output>
		<plotfile type="febio"></plotfile>
		<logfile>
			<element_data data="sy">60</element_data>
		</logfile>
	</Output>
</febio_spec>
