<?xml version="1.0" encoding="ISO-8859-1"?>
<!--
Problem Description:
	Two incongruent cylindrical sections are compressed against each other in plain strain.
Main Features:
	Sliding2 non-symmetric contact
	Rigid contact
Secondary Features:
	Optional output of the matrix condition number using the SuperLU solver (remove the
	comment lines below to activate this option).
Materials:
	Neo-Hookean
Degrees of Freedom: 50332
Results:
	Solver: SuperLU
	Steps Completed: 20
	Equilibrium Iterations: 46
	Right Hand Evaluations: 66
	Siffness Reformations: 46
	Other:
		The lower edge of top cylinder has a y-displacement of -0.0512 (node 468)
		at time t=1.  The top edge of the bottom cylinder has a y-displacement of
		-0.0493 (node 378), so there is slight penetration.
 
Comments:
	The penetration is actually a bit better using Augmented Lagrangian, but this
	demonstrates that a reasonable penetration can be obtained with trial-and-error
	selection of the contact penalty parameter.  The other contact methods either
	error terminated or had too significant penetration.
-->
<febio_spec version="2.0">
	<Module type="solid"/>
	<Control>
		<title>untitled</title>
		<time_steps>20</time_steps>
		<step_size>0.05</step_size>
		<max_refs>50</max_refs>
		<max_ups>0</max_ups>
		<dtol>0.1</dtol>
		<etol>0.01</etol>
		<rtol>0</rtol>
		<lstol>999</lstol>
		<analysis type="static"/>
		<symmetric_stiffness>0</symmetric_stiffness>
	</Control>
	<Globals>
		<Constants>
			<T>0</T>
			<R>0</R>
			<Fc>0</Fc>
		</Constants>
	</Globals>
	<Material>
		<material id="1" name="Material 1" type="neo-Hookean">
			<density>1</density>
			<E>1</E>
			<v>0.45</v>
		</material>
		<material id="2" name="Material 2" type="neo-Hookean">
			<density>1</density>
			<E>1</E>
			<v>0.45</v>
		</material>
		<material id="3" name="Material 3" type="rigid body">
			<density>1</density>
		</material>
	</Material>
	<Geometry>
		<Nodes>
			<node id="1">-7.2346220e-008,-9.0000000e-001, 0.0000000e+000</node>
			<node id="2">-7.3351029e-008,-9.1250000e-001, 0.0000000e+000</node>
			<node id="3">-7.4355838e-008,-9.2500000e-001, 0.0000000e+000</node>
			<node id="4">-7.5360646e-008,-9.3750000e-001, 0.0000000e+000</node>
			<node id="5">-7.6365455e-008,-9.5000000e-001, 0.0000000e+000</node>
			<node id="6">-7.7370263e-008,-9.6250000e-001, 0.0000000e+000</node>
			<node id="7">-7.8375072e-008,-9.7500000e-001, 0.0000000e+000</node>
			<node id="8">-7.9379881e-008,-9.8750000e-001, 0.0000000e+000</node>
			<node id="9">-8.0384689e-008,-1.0000000e+000, 0.0000000e+000</node>
			<node id="10"> 2.2087033e-002,-8.9972894e-001, 0.0000000e+000</node>
			<node id="11"> 2.2393797e-002,-9.1222517e-001, 0.0000000e+000</node>
			<node id="12"> 2.2700562e-002,-9.2472141e-001, 0.0000000e+000</node>
			<node id="13"> 2.3007326e-002,-9.3721764e-001, 0.0000000e+000</node>
			<node id="14"> 2.3314090e-002,-9.4971388e-001, 0.0000000e+000</node>
			<node id="15"> 2.3620855e-002,-9.6221011e-001, 0.0000000e+000</node>
			<node id="16"> 2.3927619e-002,-9.7470635e-001, 0.0000000e+000</node>
			<node id="17"> 2.4234383e-002,-9.8720259e-001, 0.0000000e+000</node>
			<node id="18"> 2.4541148e-002,-9.9969882e-001, 0.0000000e+000</node>
			<node id="19"> 4.4160834e-002,-8.9891591e-001, 0.0000000e+000</node>
			<node id="20"> 4.4774179e-002,-9.1140086e-001, 0.0000000e+000</node>
<!-- ... 1816 like lines cut -->
		</Nodes>
		<Elements type="hex8" mat="1" elset="Part26">
			<elem id="1">     1,     2,    11,    10,   460,   461,   470,   469</elem>
			<elem id="2">     2,     3,    12,    11,   461,   462,   471,   470</elem>
			<elem id="3">     3,     4,    13,    12,   462,   463,   472,   471</elem>
			<elem id="4">     4,     5,    14,    13,   463,   464,   473,   472</elem>
			<elem id="5">     5,     6,    15,    14,   464,   465,   474,   473</elem>
			<elem id="6">     6,     7,    16,    15,   465,   466,   475,   474</elem>
			<elem id="7">     7,     8,    17,    16,   466,   467,   476,   475</elem>
			<elem id="8">     8,     9,    18,    17,   467,   468,   477,   476</elem>
			<elem id="9">    10,    11,    20,    19,   469,   470,   479,   478</elem>
			<elem id="10">    11,    12,    21,    20,   470,   471,   480,   479</elem>
			<elem id="11">    12,    13,    22,    21,   471,   472,   481,   480</elem>
			<elem id="12">    13,    14,    23,    22,   472,   473,   482,   481</elem>
			<elem id="13">    14,    15,    24,    23,   473,   474,   483,   482</elem>
			<elem id="14">    15,    16,    25,    24,   474,   475,   484,   483</elem>
			<elem id="15">    16,    17,    26,    25,   475,   476,   485,   484</elem>
			<elem id="16">    17,    18,    27,    26,   476,   477,   486,   485</elem>
			<elem id="17">    19,    20,    29,    28,   478,   479,   488,   487</elem>
			<elem id="18">    20,    21,    30,    29,   479,   480,   489,   488</elem>
			<elem id="19">    21,    22,    31,    30,   480,   481,   490,   489</elem>
			<elem id="20">    22,    23,    32,    31,   481,   482,   491,   490</elem>
<!-- ... 380 like lines cut -->
		</Elements>
		<Elements type="hex8" mat="2" elset="Part27">
			<elem id="401">   919,   920,   929,   928,  1378,  1379,  1388,  1387</elem>
			<elem id="402">   920,   921,   930,   929,  1379,  1380,  1389,  1388</elem>
			<elem id="403">   921,   922,   931,   930,  1380,  1381,  1390,  1389</elem>
			<elem id="404">   922,   923,   932,   931,  1381,  1382,  1391,  1390</elem>
			<elem id="405">   923,   924,   933,   932,  1382,  1383,  1392,  1391</elem>
			<elem id="406">   924,   925,   934,   933,  1383,  1384,  1393,  1392</elem>
			<elem id="407">   925,   926,   935,   934,  1384,  1385,  1394,  1393</elem>
			<elem id="408">   926,   927,   936,   935,  1385,  1386,  1395,  1394</elem>
			<elem id="409">   928,   929,   938,   937,  1387,  1388,  1397,  1396</elem>
			<elem id="410">   929,   930,   939,   938,  1388,  1389,  1398,  1397</elem>
			<elem id="411">   930,   931,   940,   939,  1389,  1390,  1399,  1398</elem>
			<elem id="412">   931,   932,   941,   940,  1390,  1391,  1400,  1399</elem>
			<elem id="413">   932,   933,   942,   941,  1391,  1392,  1401,  1400</elem>
			<elem id="414">   933,   934,   943,   942,  1392,  1393,  1402,  1401</elem>
			<elem id="415">   934,   935,   944,   943,  1393,  1394,  1403,  1402</elem>
			<elem id="416">   935,   936,   945,   944,  1394,  1395,  1404,  1403</elem>
			<elem id="417">   937,   938,   947,   946,  1396,  1397,  1406,  1405</elem>
			<elem id="418">   938,   939,   948,   947,  1397,  1398,  1407,  1406</elem>
			<elem id="419">   939,   940,   949,   948,  1398,  1399,  1408,  1407</elem>
			<elem id="420">   940,   941,   950,   949,  1399,  1400,  1409,  1408</elem>
<!-- ... 380 like lines cut -->
		</Elements>
		<Surface name="MasterSurface00">
			<quad4 id="1">   928,   919,  1378,  1387</quad4>
			<quad4 id="2">   937,   928,  1387,  1396</quad4>
			<quad4 id="3">   946,   937,  1396,  1405</quad4>
			<quad4 id="4">   955,   946,  1405,  1414</quad4>
			<quad4 id="5">   964,   955,  1414,  1423</quad4>
			<quad4 id="6">   973,   964,  1423,  1432</quad4>
			<quad4 id="7">   982,   973,  1432,  1441</quad4>
			<quad4 id="8">   991,   982,  1441,  1450</quad4>
			<quad4 id="9">  1000,   991,  1450,  1459</quad4>
			<quad4 id="10">  1009,  1000,  1459,  1468</quad4>
			<quad4 id="11">  1018,  1009,  1468,  1477</quad4>
			<quad4 id="12">  1027,  1018,  1477,  1486</quad4>
			<quad4 id="13">  1036,  1027,  1486,  1495</quad4>
			<quad4 id="14">  1045,  1036,  1495,  1504</quad4>
			<quad4 id="15">  1054,  1045,  1504,  1513</quad4>
			<quad4 id="16">  1063,  1054,  1513,  1522</quad4>
			<quad4 id="17">  1072,  1063,  1522,  1531</quad4>
			<quad4 id="18">  1081,  1072,  1531,  1540</quad4>
			<quad4 id="19">  1090,  1081,  1540,  1549</quad4>
			<quad4 id="20">  1099,  1090,  1549,  1558</quad4>
<!-- ... 30 like lines cut -->
		</Surface>
		<Surface name="SlaveSurface00">
			<quad4 id="1">     9,    18,   477,   468</quad4>
			<quad4 id="2">    18,    27,   486,   477</quad4>
			<quad4 id="3">    27,    36,   495,   486</quad4>
			<quad4 id="4">    36,    45,   504,   495</quad4>
			<quad4 id="5">    45,    54,   513,   504</quad4>
			<quad4 id="6">    54,    63,   522,   513</quad4>
			<quad4 id="7">    63,    72,   531,   522</quad4>
			<quad4 id="8">    72,    81,   540,   531</quad4>
			<quad4 id="9">    81,    90,   549,   540</quad4>
			<quad4 id="10">    90,    99,   558,   549</quad4>
			<quad4 id="11">    99,   108,   567,   558</quad4>
			<quad4 id="12">   108,   117,   576,   567</quad4>
			<quad4 id="13">   117,   126,   585,   576</quad4>
			<quad4 id="14">   126,   135,   594,   585</quad4>
			<quad4 id="15">   135,   144,   603,   594</quad4>
			<quad4 id="16">   144,   153,   612,   603</quad4>
			<quad4 id="17">   153,   162,   621,   612</quad4>
			<quad4 id="18">   162,   171,   630,   621</quad4>
			<quad4 id="19">   171,   180,   639,   630</quad4>
			<quad4 id="20">   180,   189,   648,   639</quad4>
<!-- ... 30 like lines cut -->
		</Surface>
	</Geometry>
	<Boundary>
		<fix bc="x">
			<node id="1"/>
			<node id="2"/>
			<node id="3"/>
			<node id="4"/>
			<node id="5"/>
			<node id="6"/>
			<node id="7"/>
			<node id="8"/>
			<node id="9"/>
			<node id="460"/>
			<node id="461"/>
			<node id="462"/>
			<node id="463"/>
			<node id="464"/>
			<node id="465"/>
			<node id="466"/>
			<node id="467"/>
			<node id="468"/>
			<node id="919"/>
			<node id="920"/>
<!-- ... 16 like lines cut -->
		</fix>
		<fix bc="y">
			<node id="927"/>
			<node id="1386"/>
		</fix>
		<fix bc="x">
			<node id="927"/>
			<node id="1386"/>
		</fix>
		<fix bc="y">
			<node id="927"/>
			<node id="936"/>
			<node id="945"/>
			<node id="954"/>
			<node id="963"/>
			<node id="972"/>
			<node id="981"/>
			<node id="990"/>
			<node id="999"/>
			<node id="1008"/>
			<node id="1017"/>
			<node id="1026"/>
			<node id="1035"/>
			<node id="1044"/>
			<node id="1053"/>
			<node id="1062"/>
			<node id="1071"/>
			<node id="1080"/>
			<node id="1089"/>
			<node id="1098"/>
<!-- ... 82 like lines cut -->
		</fix>
		<fix bc="x">
			<node id="927"/>
			<node id="936"/>
			<node id="945"/>
			<node id="954"/>
			<node id="963"/>
			<node id="972"/>
			<node id="981"/>
			<node id="990"/>
			<node id="999"/>
			<node id="1008"/>
			<node id="1017"/>
			<node id="1026"/>
			<node id="1035"/>
			<node id="1044"/>
			<node id="1053"/>
			<node id="1062"/>
			<node id="1071"/>
			<node id="1080"/>
			<node id="1089"/>
			<node id="1098"/>
<!-- ... 82 like lines cut -->
		</fix>
		<fix bc="z">
			<node id="1"/>
			<node id="2"/>
			<node id="3"/>
			<node id="4"/>
			<node id="5"/>
			<node id="6"/>
			<node id="7"/>
			<node id="8"/>
			<node id="9"/>
			<node id="10"/>
			<node id="11"/>
			<node id="12"/>
			<node id="13"/>
			<node id="14"/>
			<node id="15"/>
			<node id="16"/>
			<node id="17"/>
			<node id="18"/>
			<node id="19"/>
			<node id="20"/>
<!-- ... 1816 like lines cut -->
		</fix>
	</Boundary>
	<Contact>
		<contact type="rigid">
			<node id="1" rb="3"></node>
			<node id="10" rb="3"></node>
			<node id="19" rb="3"></node>
			<node id="28" rb="3"></node>
			<node id="37" rb="3"></node>
			<node id="46" rb="3"></node>
			<node id="55" rb="3"></node>
			<node id="64" rb="3"></node>
			<node id="73" rb="3"></node>
			<node id="82" rb="3"></node>
			<node id="91" rb="3"></node>
			<node id="100" rb="3"></node>
			<node id="109" rb="3"></node>
			<node id="118" rb="3"></node>
			<node id="127" rb="3"></node>
			<node id="136" rb="3"></node>
			<node id="145" rb="3"></node>
			<node id="154" rb="3"></node>
			<node id="163" rb="3"></node>
			<node id="172" rb="3"></node>
<!-- ... 82 like lines cut -->
		</contact>
		<contact type="sliding-biphasic">
			<laugon>0</laugon>
			<tolerance>0.05</tolerance>
			<penalty>10</penalty>
			<two_pass>1</two_pass>
			<auto_penalty>1</auto_penalty>
			<pressure_penalty>0</pressure_penalty>
			<symmetric_stiffness>0</symmetric_stiffness>
			<search_radius>1</search_radius>
			<surface type="master" set="MasterSurface00"/>
			<surface type="slave" set="SlaveSurface00"/>
		</contact>
	</Contact>
	<Constraints>
		<rigid_body mat="3">
			<fixed bc="x"/>
			<fixed bc="z"/>
			<fixed bc="Rx"/>
			<fixed bc="Ry"/>
			<fixed bc="Rz"/>
		</rigid_body>
		<rigid_body mat="3">
			<prescribed bc="y" lc="1">1</prescribed>
		</rigid_body>
	</Constraints>
	<LoadData>
		<loadcurve id="1" type="linear">
			<loadpoint>0,0</loadpoint>
			<loadpoint>1,-0.1</loadpoint>
		</loadcurve>
	</LoadData>
	<Output>
		<plotfile type="febio"></plotfile>
		<logfile>
			<element_data data="Ex">170</element_data>
		</logfile>
	</Output>
</febio_spec>
