<?xml version="1.0" encoding="ISO-8859-1"?>
<!--
Problem Description:
	A semi-spherical rigid body in contact with a block of Ogden material is displaced
	0.2 units in the z-direction (into the block) at time t=1.
Main Features:
	Facet-to-facet Contact
Secondary Features:
	Augmented Lagrangian
Materials:
	Ogden
	Rigid Bodies
Degrees of Freedom: 1453
Results:
	Steps Completed: 41
	Equilibrium Iterations: 485
	Right Hand Evaluations: 640
	Siffness Reformations: 73
	Other:
		The maximum displacement is 0.20 at time t=1.
Comments:
	This problem was changed to quarter symmetry to eliminate inconsistent convergence.
-->
<febio_spec version="2.0">
	<Module type="solid"/>
	<Control>
		<title>Indent Ogden Material</title>
		<time_steps>10</time_steps>
		<step_size>0.1</step_size>
		<max_refs>15</max_refs>
		<max_ups>10</max_ups>
		<dtol>0.001</dtol>
		<etol>0.01</etol>
		<rtol>0</rtol>
		<lstol>0.9</lstol>
		<time_stepper>
			<dtmin>0.01</dtmin>
			<dtmax>0.1</dtmax>
			<max_retries>5</max_retries>
			<opt_iter>10</opt_iter>
		</time_stepper>
	</Control>
	<Material>
		<material id="1" name="Material1" type="Ogden">
			<density>1</density>
			<k>100</k>
			<c1>0.0329</c1>
			<c2>0</c2>
			<c3>0</c3>
			<c4>0</c4>
			<c5>0</c5>
			<c6>0</c6>
			<m1>6.82</m1>
			<m2>1</m2>
			<m3>1</m3>
			<m4>1</m4>
			<m5>1</m5>
			<m6>1</m6>
		</material>
		<material id="2" name="Material2" type="rigid body">
			<density>1</density>
			<center_of_mass>0,0,0</center_of_mass>
		</material>
	</Material>
	<Geometry>
		<Nodes>
			<node id="1">-2.7755576e-017,-2.7755576e-017, 0.0000000e+000</node>
			<node id="2">-2.7755576e-017,-2.7755576e-017, 1.0000000e-001</node>
			<node id="3">-2.7755576e-017,-2.7755576e-017, 2.0000000e-001</node>
			<node id="4">-2.7755576e-017,-2.7755576e-017, 3.0000000e-001</node>
			<node id="5">-2.7755576e-017,-2.7755576e-017, 4.0000000e-001</node>
			<node id="6">-2.7755576e-017, 1.0000000e-001, 0.0000000e+000</node>
			<node id="7">-2.7755576e-017, 1.0000000e-001, 1.0000000e-001</node>
			<node id="8">-2.7755576e-017, 1.0000000e-001, 2.0000000e-001</node>
			<node id="9">-2.7755576e-017, 1.0000000e-001, 3.0000000e-001</node>
			<node id="10">-2.7755576e-017, 1.0000000e-001, 4.0000000e-001</node>
			<node id="11">-2.7755576e-017, 2.0000000e-001, 0.0000000e+000</node>
			<node id="12">-2.7755576e-017, 2.0000000e-001, 1.0000000e-001</node>
			<node id="13">-2.7755576e-017, 2.0000000e-001, 2.0000000e-001</node>
			<node id="14">-2.7755576e-017, 2.0000000e-001, 3.0000000e-001</node>
			<node id="15">-2.7755576e-017, 2.0000000e-001, 4.0000000e-001</node>
			<node id="16">-2.7755576e-017, 3.0000000e-001, 0.0000000e+000</node>
			<node id="17">-2.7755576e-017, 3.0000000e-001, 1.0000000e-001</node>
			<node id="18">-2.7755576e-017, 3.0000000e-001, 2.0000000e-001</node>
			<node id="19">-2.7755576e-017, 3.0000000e-001, 3.0000000e-001</node>
			<node id="20">-2.7755576e-017, 3.0000000e-001, 4.0000000e-001</node>
<!-- ... 446 like lines cut -->
		</Nodes>
		<Elements type="hex8" mat="1" elset="Part32">
			<elem id="1">     1,    31,    36,     6,     2,    32,    37,     7</elem>
			<elem id="2">     2,    32,    37,     7,     3,    33,    38,     8</elem>
			<elem id="3">     3,    33,    38,     8,     4,    34,    39,     9</elem>
			<elem id="4">     4,    34,    39,     9,     5,    35,    40,    10</elem>
			<elem id="5">     6,    36,    41,    11,     7,    37,    42,    12</elem>
			<elem id="6">     7,    37,    42,    12,     8,    38,    43,    13</elem>
			<elem id="7">     8,    38,    43,    13,     9,    39,    44,    14</elem>
			<elem id="8">     9,    39,    44,    14,    10,    40,    45,    15</elem>
			<elem id="9">    11,    41,    46,    16,    12,    42,    47,    17</elem>
			<elem id="10">    12,    42,    47,    17,    13,    43,    48,    18</elem>
			<elem id="11">    13,    43,    48,    18,    14,    44,    49,    19</elem>
			<elem id="12">    14,    44,    49,    19,    15,    45,    50,    20</elem>
			<elem id="13">    16,    46,    51,    21,    17,    47,    52,    22</elem>
			<elem id="14">    17,    47,    52,    22,    18,    48,    53,    23</elem>
			<elem id="15">    18,    48,    53,    23,    19,    49,    54,    24</elem>
			<elem id="16">    19,    49,    54,    24,    20,    50,    55,    25</elem>
			<elem id="17">    21,    51,    56,    26,    22,    52,    57,    27</elem>
			<elem id="18">    22,    52,    57,    27,    23,    53,    58,    28</elem>
			<elem id="19">    23,    53,    58,    28,    24,    54,    59,    29</elem>
			<elem id="20">    24,    54,    59,    29,    25,    55,    60,    30</elem>
<!-- ... 80 like lines cut -->
		</Elements>
		<Elements type="hex8" mat="2" elset="Part33">
			<elem id="101">   181,   196,   273,   199,   204,   278,   399,   281</elem>
			<elem id="102">   196,   197,   274,   273,   278,   277,   400,   399</elem>
			<elem id="103">   197,   182,   201,   274,   277,   206,   285,   400</elem>
			<elem id="104">   199,   273,   275,   198,   281,   399,   401,   282</elem>
			<elem id="105">   273,   274,   276,   275,   399,   400,   402,   401</elem>
			<elem id="106">   274,   201,   200,   276,   400,   285,   286,   402</elem>
			<elem id="107">   198,   275,   202,   183,   282,   401,   290,   210</elem>
			<elem id="108">   275,   276,   203,   202,   401,   402,   289,   290</elem>
			<elem id="109">   276,   200,   184,   203,   402,   286,   214,   289</elem>
			<elem id="110">   204,   278,   399,   281,   205,   280,   403,   283</elem>
			<elem id="111">   278,   277,   400,   399,   280,   279,   404,   403</elem>
			<elem id="112">   277,   206,   285,   400,   279,   207,   287,   404</elem>
			<elem id="113">   281,   399,   401,   282,   283,   403,   405,   284</elem>
			<elem id="114">   399,   400,   402,   401,   403,   404,   406,   405</elem>
			<elem id="115">   400,   285,   286,   402,   404,   287,   288,   406</elem>
			<elem id="116">   282,   401,   290,   210,   284,   405,   292,   211</elem>
			<elem id="117">   401,   402,   289,   290,   405,   406,   291,   292</elem>
			<elem id="118">   402,   286,   214,   289,   406,   288,   215,   291</elem>
			<elem id="119">   205,   280,   403,   283,   185,   208,   293,   213</elem>
			<elem id="120">   280,   279,   404,   403,   208,   209,   294,   293</elem>
<!-- ... 169 like lines cut -->
		</Elements>
		<Surface name="MasterSurface01">
			<quad4 id="1">   189,   226,   317,   232</quad4>
			<quad4 id="2">   226,   225,   318,   317</quad4>
			<quad4 id="3">   225,   191,   239,   318</quad4>
			<quad4 id="4">   232,   317,   319,   233</quad4>
			<quad4 id="5">   317,   318,   320,   319</quad4>
			<quad4 id="6">   318,   239,   240,   320</quad4>
			<quad4 id="7">   233,   319,   242,   193</quad4>
			<quad4 id="8">   319,   320,   241,   242</quad4>
			<quad4 id="9">   320,   240,   195,   241</quad4>
			<quad4 id="10">   191,   249,   351,   239</quad4>
			<quad4 id="11">   249,   248,   352,   351</quad4>
			<quad4 id="12">   248,   190,   255,   352</quad4>
			<quad4 id="13">   239,   351,   353,   240</quad4>
			<quad4 id="14">   351,   352,   354,   353</quad4>
			<quad4 id="15">   352,   255,   256,   354</quad4>
			<quad4 id="16">   240,   353,   258,   195</quad4>
			<quad4 id="17">   353,   354,   257,   258</quad4>
			<quad4 id="18">   354,   256,   194,   257</quad4>
			<quad4 id="19">   192,   270,   395,   271</quad4>
			<quad4 id="20">   270,   269,   396,   395</quad4>
<!-- ... 7 like lines cut -->
		</Surface>
		<Surface name="SlaveSurface01">
			<quad4 id="1">     6,    36,    31,     1</quad4>
			<quad4 id="2">    11,    41,    36,     6</quad4>
			<quad4 id="3">    16,    46,    41,    11</quad4>
			<quad4 id="4">    21,    51,    46,    16</quad4>
			<quad4 id="5">    26,    56,    51,    21</quad4>
			<quad4 id="6">    36,    66,    61,    31</quad4>
			<quad4 id="7">    41,    71,    66,    36</quad4>
			<quad4 id="8">    46,    76,    71,    41</quad4>
			<quad4 id="9">    51,    81,    76,    46</quad4>
			<quad4 id="10">    56,    86,    81,    51</quad4>
			<quad4 id="11">    66,    96,    91,    61</quad4>
			<quad4 id="12">    71,   101,    96,    66</quad4>
			<quad4 id="13">    76,   106,   101,    71</quad4>
			<quad4 id="14">    81,   111,   106,    76</quad4>
			<quad4 id="15">    86,   116,   111,    81</quad4>
			<quad4 id="16">    96,   126,   121,    91</quad4>
			<quad4 id="17">   101,   131,   126,    96</quad4>
			<quad4 id="18">   106,   136,   131,   101</quad4>
			<quad4 id="19">   111,   141,   136,   106</quad4>
			<quad4 id="20">   116,   146,   141,   111</quad4>
<!-- ... 5 like lines cut -->
		</Surface>
	</Geometry>
	<Boundary>
		<fix bc="y">
			<node id="1"/>
			<node id="2"/>
			<node id="3"/>
			<node id="4"/>
			<node id="5"/>
			<node id="31"/>
			<node id="32"/>
			<node id="33"/>
			<node id="34"/>
			<node id="35"/>
			<node id="61"/>
			<node id="62"/>
			<node id="63"/>
			<node id="64"/>
			<node id="65"/>
			<node id="91"/>
			<node id="92"/>
			<node id="93"/>
			<node id="94"/>
			<node id="95"/>
<!-- ... 10 like lines cut -->
		</fix>
		<fix bc="x">
			<node id="1"/>
			<node id="2"/>
			<node id="3"/>
			<node id="4"/>
			<node id="5"/>
			<node id="6"/>
			<node id="7"/>
			<node id="8"/>
			<node id="9"/>
			<node id="10"/>
			<node id="11"/>
			<node id="12"/>
			<node id="13"/>
			<node id="14"/>
			<node id="15"/>
			<node id="16"/>
			<node id="17"/>
			<node id="18"/>
			<node id="19"/>
			<node id="20"/>
<!-- ... 10 like lines cut -->
		</fix>
		<fix bc="z">
			<node id="5"/>
			<node id="10"/>
			<node id="15"/>
			<node id="20"/>
			<node id="25"/>
			<node id="30"/>
			<node id="35"/>
			<node id="40"/>
			<node id="45"/>
			<node id="50"/>
			<node id="55"/>
			<node id="60"/>
			<node id="65"/>
			<node id="70"/>
			<node id="75"/>
			<node id="80"/>
			<node id="85"/>
			<node id="90"/>
			<node id="95"/>
			<node id="100"/>
<!-- ... 16 like lines cut -->
		</fix>
		<fix bc="y">
			<node id="5"/>
			<node id="10"/>
			<node id="15"/>
			<node id="20"/>
			<node id="25"/>
			<node id="30"/>
			<node id="35"/>
			<node id="40"/>
			<node id="45"/>
			<node id="50"/>
			<node id="55"/>
			<node id="60"/>
			<node id="65"/>
			<node id="70"/>
			<node id="75"/>
			<node id="80"/>
			<node id="85"/>
			<node id="90"/>
			<node id="95"/>
			<node id="100"/>
<!-- ... 16 like lines cut -->
		</fix>
		<fix bc="x">
			<node id="5"/>
			<node id="10"/>
			<node id="15"/>
			<node id="20"/>
			<node id="25"/>
			<node id="30"/>
			<node id="35"/>
			<node id="40"/>
			<node id="45"/>
			<node id="50"/>
			<node id="55"/>
			<node id="60"/>
			<node id="65"/>
			<node id="70"/>
			<node id="75"/>
			<node id="80"/>
			<node id="85"/>
			<node id="90"/>
			<node id="95"/>
			<node id="100"/>
<!-- ... 16 like lines cut -->
		</fix>
	</Boundary>
	<Contact>
		<contact type="facet-to-facet sliding">
			<laugon>1</laugon>
			<tolerance>0.5</tolerance>
			<two_pass>0</two_pass>
			<penalty>10</penalty>
			<surface type="master" set="MasterSurface01"/>
			<surface type="slave" set="SlaveSurface01"/>
		</contact>
	</Contact>
	<Constraints>
		<rigid_body mat="2">
			<fixed bc="x"/>
			<fixed bc="y"/>
			<fixed bc="Rx"/>
			<fixed bc="Ry"/>
			<fixed bc="Rz"/>
		</rigid_body>
		<rigid_body mat="2">
			<prescribed bc="z" lc="1">1</prescribed>
		</rigid_body>
	</Constraints>
	<LoadData>
		<loadcurve id="1" type="smooth">
			<loadpoint>0,0</loadpoint>
			<loadpoint>1,0.2</loadpoint>
		</loadcurve>
	</LoadData>
	<Output>
		<plotfile type="febio"></plotfile>
		<logfile>
			<element_data data="Ex">1</element_data>
		</logfile>
	</Output>
</febio_spec>
