<?xml version="1.0" encoding="ISO-8859-1"?>
<!--
Problem Description:
	A 2-dimensional billet block is compressed between two rigid bodies which each have a
	prescribed z-displacement (compressing the block) of 0.6 units from time t=0 to t=1.
Main Features:
	Sliding Contact
	Rigid Bodies
Secondary Features:
	Full Newton (max_ups = 0)
Materials:
	Odgen unconstrained
	Rigid Bodies
Degrees of Freedom: 4882
Results:
	Steps Completed: 10
	Equilibrium Iterations: 64
	Right Hand Evaluations: 87
	Siffness Reformations: 64
		
Comments:
	This problem is similiar to co22 but with Ogden unconstrained material and 10 time steps.
-->
<febio_spec version="2.0">
	<Module type="solid"/>
	<Control>
		<title>Ogden Unconstrained Billet</title>
		<time_steps>10</time_steps>
		<step_size>0.1</step_size>
		<max_refs>50</max_refs>
		<max_ups>0</max_ups>
		<dtol>0.001</dtol>
		<etol>0.01</etol>
		<rtol>0</rtol>
		<lstol>0.9</lstol>
		<time_stepper>
			<dtmin>0.01</dtmin>
			<dtmax>0.1</dtmax>
			<max_retries>5</max_retries>
			<opt_iter>10</opt_iter>
		</time_stepper>
		<analysis type="static"/>
	</Control>
	<Globals>
		<Constants>
			<T>0</T>
			<R>0</R>
			<Fc>0</Fc>
		</Constants>
	</Globals>
	<Material>
		<material id="1" name="billet" type="Ogden unconstrained">
			<c1>0.0329</c1>
			<m1>6.82</m1>
			<cp>0.1</cp>
		</material>
		<material id="2" name="top" type="rigid body">
			<density>1</density>
		</material>
		<material id="3" name="bottom" type="rigid body">
			<density>1</density>
		</material>
	</Material>
	<Geometry>
		<Nodes>
			<node id="1">-5.0000000e-001,-5.0000000e-001,-5.0000000e-002</node>
			<node id="2">-4.5000000e-001,-5.0000000e-001,-5.0000000e-002</node>
			<node id="3">-4.0000000e-001,-5.0000000e-001,-5.0000000e-002</node>
			<node id="4">-3.5000000e-001,-5.0000000e-001,-5.0000000e-002</node>
			<node id="5">-3.0000000e-001,-5.0000000e-001,-5.0000000e-002</node>
			<node id="6">-2.5000000e-001,-5.0000000e-001,-5.0000000e-002</node>
			<node id="7">-2.0000000e-001,-5.0000000e-001,-5.0000000e-002</node>
			<node id="8">-1.5000000e-001,-5.0000000e-001,-5.0000000e-002</node>
			<node id="9">-1.0000000e-001,-5.0000000e-001,-5.0000000e-002</node>
			<node id="10">-5.0000000e-002,-5.0000000e-001,-5.0000000e-002</node>
			<node id="11"> 0.0000000e+000,-5.0000000e-001,-5.0000000e-002</node>
			<node id="12"> 5.0000000e-002,-5.0000000e-001,-5.0000000e-002</node>
			<node id="13"> 1.0000000e-001,-5.0000000e-001,-5.0000000e-002</node>
			<node id="14"> 1.5000000e-001,-5.0000000e-001,-5.0000000e-002</node>
			<node id="15"> 2.0000000e-001,-5.0000000e-001,-5.0000000e-002</node>
			<node id="16"> 2.5000000e-001,-5.0000000e-001,-5.0000000e-002</node>
			<node id="17"> 3.0000000e-001,-5.0000000e-001,-5.0000000e-002</node>
			<node id="18"> 3.5000000e-001,-5.0000000e-001,-5.0000000e-002</node>
			<node id="19"> 4.0000000e-001,-5.0000000e-001,-5.0000000e-002</node>
			<node id="20"> 4.5000000e-001,-5.0000000e-001,-5.0000000e-002</node>
<!-- ... 2478 like lines cut -->
		</Nodes>
		<Elements type="hex8" mat="1" elset="Part1">
			<elem id="1">     1,     2,    23,    22,   442,   443,   464,   463</elem>
			<elem id="2">     2,     3,    24,    23,   443,   444,   465,   464</elem>
			<elem id="3">     3,     4,    25,    24,   444,   445,   466,   465</elem>
			<elem id="4">     4,     5,    26,    25,   445,   446,   467,   466</elem>
			<elem id="5">     5,     6,    27,    26,   446,   447,   468,   467</elem>
			<elem id="6">     6,     7,    28,    27,   447,   448,   469,   468</elem>
			<elem id="7">     7,     8,    29,    28,   448,   449,   470,   469</elem>
			<elem id="8">     8,     9,    30,    29,   449,   450,   471,   470</elem>
			<elem id="9">     9,    10,    31,    30,   450,   451,   472,   471</elem>
			<elem id="10">    10,    11,    32,    31,   451,   452,   473,   472</elem>
			<elem id="11">    11,    12,    33,    32,   452,   453,   474,   473</elem>
			<elem id="12">    12,    13,    34,    33,   453,   454,   475,   474</elem>
			<elem id="13">    13,    14,    35,    34,   454,   455,   476,   475</elem>
			<elem id="14">    14,    15,    36,    35,   455,   456,   477,   476</elem>
			<elem id="15">    15,    16,    37,    36,   456,   457,   478,   477</elem>
			<elem id="16">    16,    17,    38,    37,   457,   458,   479,   478</elem>
			<elem id="17">    17,    18,    39,    38,   458,   459,   480,   479</elem>
			<elem id="18">    18,    19,    40,    39,   459,   460,   481,   480</elem>
			<elem id="19">    19,    20,    41,    40,   460,   461,   482,   481</elem>
			<elem id="20">    20,    21,    42,    41,   461,   462,   483,   482</elem>
<!-- ... 1180 like lines cut -->
		</Elements>
		<Elements type="hex8" mat="2" elset="Part2">
			<elem id="1201">  2483,  2487,  2489,  2485,  2484,  2488,  2490,  2486</elem>
		</Elements>
		<Elements type="hex8" mat="3" elset="Part3">
			<elem id="1202">  2491,  2495,  2497,  2493,  2492,  2496,  2498,  2494</elem>
		</Elements>
		<Surface name="MasterSurface00">
			<quad4 id="1">  2483,  2487,  2488,  2484</quad4>
		</Surface>
		<Surface name="SlaveSurface00">
			<quad4 id="1">  2364,  2362,  2442,  2444</quad4>
			<quad4 id="2">  2363,  2365,  2445,  2443</quad4>
			<quad4 id="3">  2366,  2364,  2444,  2446</quad4>
			<quad4 id="4">  2365,  2367,  2447,  2445</quad4>
			<quad4 id="5">  2368,  2366,  2446,  2448</quad4>
			<quad4 id="6">  2367,  2369,  2449,  2447</quad4>
			<quad4 id="7">  2370,  2368,  2448,  2450</quad4>
			<quad4 id="8">  2369,  2371,  2451,  2449</quad4>
			<quad4 id="9">  2372,  2370,  2450,  2452</quad4>
			<quad4 id="10">  2371,  2373,  2453,  2451</quad4>
			<quad4 id="11">  2374,  2372,  2452,  2454</quad4>
			<quad4 id="12">  2373,  2375,  2455,  2453</quad4>
			<quad4 id="13">  2376,  2374,  2454,  2456</quad4>
			<quad4 id="14">  2375,  2377,  2457,  2455</quad4>
			<quad4 id="15">  2378,  2376,  2456,  2458</quad4>
			<quad4 id="16">  2377,  2379,  2459,  2457</quad4>
			<quad4 id="17">  2380,  2378,  2458,  2460</quad4>
			<quad4 id="18">  2379,  2381,  2461,  2459</quad4>
			<quad4 id="19">  2382,  2380,  2460,  2462</quad4>
			<quad4 id="20">  2383,  2382,  2462,  2463</quad4>
<!-- ... 20 like lines cut -->
		</Surface>
	</Geometry>
	<Boundary>
		<fix bc="z">
			<node id="1"/>
			<node id="2"/>
			<node id="3"/>
			<node id="4"/>
			<node id="5"/>
			<node id="6"/>
			<node id="7"/>
			<node id="8"/>
			<node id="9"/>
			<node id="10"/>
			<node id="11"/>
			<node id="12"/>
			<node id="13"/>
			<node id="14"/>
			<node id="15"/>
			<node id="16"/>
			<node id="17"/>
			<node id="18"/>
			<node id="19"/>
			<node id="20"/>
<!-- ... 2462 like lines cut -->
		</fix>
		<fix bc="x">
			<node id="2323"/>
			<node id="2324"/>
			<node id="2325"/>
			<node id="2326"/>
			<node id="2327"/>
			<node id="2328"/>
			<node id="2329"/>
			<node id="2330"/>
			<node id="2331"/>
			<node id="2332"/>
			<node id="2333"/>
			<node id="2334"/>
			<node id="2335"/>
			<node id="2336"/>
			<node id="2337"/>
			<node id="2338"/>
			<node id="2339"/>
			<node id="2340"/>
			<node id="2341"/>
			<node id="2342"/>
<!-- ... 64 like lines cut -->
		</fix>
	</Boundary>
	<Contact>
		<contact type="sliding2">
			<laugon>1</laugon>
			<tolerance>0.2</tolerance>
			<penalty>1</penalty>
			<two_pass>0</two_pass>
			<auto_penalty>1</auto_penalty>
			<pressure_penalty>0</pressure_penalty>
			<symmetric_stiffness>0</symmetric_stiffness>
			<search_radius>1</search_radius>
			<surface type="master" set="MasterSurface00"/>
			<surface type="slave" set="SlaveSurface00"/>
		</contact>
		<contact type="sliding2">
			<laugon>1</laugon>
			<tolerance>0.2</tolerance>
			<penalty>1</penalty>
			<two_pass>0</two_pass>
			<auto_penalty>1</auto_penalty>
			<pressure_penalty>0</pressure_penalty>
			<symmetric_stiffness>0</symmetric_stiffness>
			<search_radius>1</search_radius>
			<surface type="master" name="MasterSurface01">
				<quad4 id="1">  2497,  2493,  2494,  2498</quad4>
			</surface>
			<surface type="slave" name="SlaveSurface01">
				<quad4 id="1">  2344,  2323,  2403,  2424</quad4>
				<quad4 id="2">  2323,  2324,  2404,  2403</quad4>
				<quad4 id="3">  2324,  2325,  2405,  2404</quad4>
				<quad4 id="4">  2325,  2326,  2406,  2405</quad4>
				<quad4 id="5">  2326,  2327,  2407,  2406</quad4>
				<quad4 id="6">  2327,  2328,  2408,  2407</quad4>
				<quad4 id="7">  2328,  2329,  2409,  2408</quad4>
				<quad4 id="8">  2329,  2330,  2410,  2409</quad4>
				<quad4 id="9">  2330,  2331,  2411,  2410</quad4>
				<quad4 id="10">  2331,  2332,  2412,  2411</quad4>
				<quad4 id="11">  2332,  2333,  2413,  2412</quad4>
				<quad4 id="12">  2333,  2334,  2414,  2413</quad4>
				<quad4 id="13">  2334,  2335,  2415,  2414</quad4>
				<quad4 id="14">  2335,  2336,  2416,  2415</quad4>
				<quad4 id="15">  2336,  2337,  2417,  2416</quad4>
				<quad4 id="16">  2337,  2338,  2418,  2417</quad4>
				<quad4 id="17">  2338,  2339,  2419,  2418</quad4>
				<quad4 id="18">  2339,  2340,  2420,  2419</quad4>
				<quad4 id="19">  2340,  2341,  2421,  2420</quad4>
				<quad4 id="20">  2341,  2342,  2422,  2421</quad4>
<!-- ... 20 like lines cut -->
			</surface>
		</contact>
	</Contact>
	<Constraints>
		<rigid_body mat="2">
			<fixed bc="x"/>
			<fixed bc="z"/>
			<fixed bc="Rx"/>
			<fixed bc="Ry"/>
			<fixed bc="Rz"/>
			<prescribed bc="y" lc="1">1</prescribed>
		</rigid_body>
		<rigid_body mat="3">
			<fixed bc="x"/>
			<fixed bc="z"/>
			<fixed bc="Rx"/>
			<fixed bc="Ry"/>
			<fixed bc="Rz"/>
		</rigid_body>
		<rigid_body mat="3">
			<prescribed bc="y" lc="2">1</prescribed>
		</rigid_body>
	</Constraints>
	<LoadData>
		<loadcurve id="1" type="linear">
			<loadpoint>0,0</loadpoint>
			<loadpoint>1,-0.6</loadpoint>
		</loadcurve>
		<loadcurve id="2" type="linear">
			<loadpoint>0,0</loadpoint>
			<loadpoint>1,0.6</loadpoint>
		</loadcurve>
	</LoadData>
	<Output>
		<plotfile type="febio"></plotfile>
		<logfile>
			<element_data data="Ex">191</element_data>
		</logfile>
	</Output>
</febio_spec>
