<?xml version="1.0" encoding="ISO-8859-1"?>
<!--
Problem Description:
	A semi-spherical body in contact with a block, both consisting of Ogden unconstrained material.
	The semi-spherical body is displaced 0.2 units in the z-direction (into the block) at time t=1.
Main Features:
	Ogden unconstrained
Secondary Features:
	Sliding2 Contact applied to elastic materials
	Augmented Lagrangian
Materials:
	Ogden unconstrained
	Rigid Bodies
Degrees of Freedom: 1453
Results:
	Steps Completed: 10
	Equilibrium Iterations: 48
	Right Hand Evaluations: 62
	Siffness Reformations: 48
	Other:
		The maximum displacement is 0.20 at time t=1.
Comments:
	
-->
<febio_spec version="2.0">
	<Globals>
		<Constants>
			<T>0</T>
			<R>0</R>
			<Fc>0</Fc>
		</Constants>
	</Globals>
	<Material>
		<material id="1" name="Material 1" type="Ogden unconstrained">
			<density>1</density>
			<cp>1</cp>
			<c1>0.0329</c1>
			<c2>0</c2>
			<c3>0</c3>
			<c4>0</c4>
			<c5>0</c5>
			<c6>0</c6>
			<m1>6.82</m1>
			<m2>1</m2>
			<m3>1</m3>
			<m4>1</m4>
			<m5>1</m5>
			<m6>1</m6>
		</material>
		<material id="2" name="Material 1" id="2" name="Material 2" type="rigid body">
			<density>1</density>
			<center_of_mass>0,0,0</center_of_mass>
		</material>
	</Material>
	<Geometry>
		<Nodes>
			<node id="1">-5.0000000e-001,-5.0000000e-001, 0.0000000e+000</node>
			<node id="2">-5.0000000e-001,-5.0000000e-001, 1.0000000e-001</node>
			<node id="3">-5.0000000e-001,-5.0000000e-001, 2.0000000e-001</node>
			<node id="4">-5.0000000e-001,-5.0000000e-001, 3.0000000e-001</node>
			<node id="5">-5.0000000e-001,-5.0000000e-001, 4.0000000e-001</node>
			<node id="6">-5.0000000e-001,-4.0000000e-001, 0.0000000e+000</node>
			<node id="7">-5.0000000e-001,-4.0000000e-001, 1.0000000e-001</node>
			<node id="8">-5.0000000e-001,-4.0000000e-001, 2.0000000e-001</node>
			<node id="9">-5.0000000e-001,-4.0000000e-001, 3.0000000e-001</node>
			<node id="10">-5.0000000e-001,-4.0000000e-001, 4.0000000e-001</node>
			<node id="11">-5.0000000e-001,-3.0000000e-001, 0.0000000e+000</node>
			<node id="12">-5.0000000e-001,-3.0000000e-001, 1.0000000e-001</node>
			<node id="13">-5.0000000e-001,-3.0000000e-001, 2.0000000e-001</node>
			<node id="14">-5.0000000e-001,-3.0000000e-001, 3.0000000e-001</node>
			<node id="15">-5.0000000e-001,-3.0000000e-001, 4.0000000e-001</node>
			<node id="16">-5.0000000e-001,-2.0000000e-001, 0.0000000e+000</node>
			<node id="17">-5.0000000e-001,-2.0000000e-001, 1.0000000e-001</node>
			<node id="18">-5.0000000e-001,-2.0000000e-001, 2.0000000e-001</node>
			<node id="19">-5.0000000e-001,-2.0000000e-001, 3.0000000e-001</node>
			<node id="20">-5.0000000e-001,-2.0000000e-001, 4.0000000e-001</node>
<!-- ... 1507 like lines cut -->
		</Nodes>
		<Elements type="hex8" mat="1" elset="Part3">
			<elem id="1">     1,    56,    61,     6,     2,    57,    62,     7</elem>
			<elem id="2">     2,    57,    62,     7,     3,    58,    63,     8</elem>
			<elem id="3">     3,    58,    63,     8,     4,    59,    64,     9</elem>
			<elem id="4">     4,    59,    64,     9,     5,    60,    65,    10</elem>
			<elem id="5">     6,    61,    66,    11,     7,    62,    67,    12</elem>
			<elem id="6">     7,    62,    67,    12,     8,    63,    68,    13</elem>
			<elem id="7">     8,    63,    68,    13,     9,    64,    69,    14</elem>
			<elem id="8">     9,    64,    69,    14,    10,    65,    70,    15</elem>
			<elem id="9">    11,    66,    71,    16,    12,    67,    72,    17</elem>
			<elem id="10">    12,    67,    72,    17,    13,    68,    73,    18</elem>
			<elem id="11">    13,    68,    73,    18,    14,    69,    74,    19</elem>
			<elem id="12">    14,    69,    74,    19,    15,    70,    75,    20</elem>
			<elem id="13">    16,    71,    76,    21,    17,    72,    77,    22</elem>
			<elem id="14">    17,    72,    77,    22,    18,    73,    78,    23</elem>
			<elem id="15">    18,    73,    78,    23,    19,    74,    79,    24</elem>
			<elem id="16">    19,    74,    79,    24,    20,    75,    80,    25</elem>
			<elem id="17">    21,    76,    81,    26,    22,    77,    82,    27</elem>
			<elem id="18">    22,    77,    82,    27,    23,    78,    83,    28</elem>
			<elem id="19">    23,    78,    83,    28,    24,    79,    84,    29</elem>
			<elem id="20">    24,    79,    84,    29,    25,    80,    85,    30</elem>
<!-- ... 1136 like lines cut -->
		</Elements>
		<Surface name="MasterSurface00">
			<quad4 id="1">  1414,  1407,  1431,  1438</quad4>
			<quad4 id="2">  1407,  1408,  1432,  1431</quad4>
			<quad4 id="3">  1408,  1409,  1433,  1432</quad4>
			<quad4 id="4">  1409,  1410,  1434,  1433</quad4>
			<quad4 id="5">  1410,  1411,  1435,  1434</quad4>
			<quad4 id="6">  1411,  1412,  1436,  1435</quad4>
			<quad4 id="7">  1413,  1415,  1439,  1437</quad4>
			<quad4 id="8">  1412,  1413,  1437,  1436</quad4>
			<quad4 id="9">  1416,  1414,  1438,  1440</quad4>
			<quad4 id="10">  1415,  1417,  1441,  1439</quad4>
			<quad4 id="11">  1418,  1416,  1440,  1442</quad4>
			<quad4 id="12">  1417,  1419,  1443,  1441</quad4>
			<quad4 id="13">  1420,  1418,  1442,  1444</quad4>
			<quad4 id="14">  1419,  1421,  1445,  1443</quad4>
			<quad4 id="15">  1422,  1420,  1444,  1446</quad4>
			<quad4 id="16">  1421,  1423,  1447,  1445</quad4>
			<quad4 id="17">  1424,  1422,  1446,  1448</quad4>
			<quad4 id="18">  1425,  1424,  1448,  1449</quad4>
			<quad4 id="19">  1426,  1425,  1449,  1450</quad4>
			<quad4 id="20">  1427,  1426,  1450,  1451</quad4>
<!-- ... 88 like lines cut -->
		</Surface>
		<Surface name="SlaveSurface00">
			<quad4 id="1">     6,    61,    56,     1</quad4>
			<quad4 id="2">    11,    66,    61,     6</quad4>
			<quad4 id="3">    16,    71,    66,    11</quad4>
			<quad4 id="4">    21,    76,    71,    16</quad4>
			<quad4 id="5">    26,    81,    76,    21</quad4>
			<quad4 id="6">    31,    86,    81,    26</quad4>
			<quad4 id="7">    36,    91,    86,    31</quad4>
			<quad4 id="8">    41,    96,    91,    36</quad4>
			<quad4 id="9">    46,   101,    96,    41</quad4>
			<quad4 id="10">    51,   106,   101,    46</quad4>
			<quad4 id="11">    61,   116,   111,    56</quad4>
			<quad4 id="12">    66,   121,   116,    61</quad4>
			<quad4 id="13">    71,   126,   121,    66</quad4>
			<quad4 id="14">    76,   131,   126,    71</quad4>
			<quad4 id="15">    81,   136,   131,    76</quad4>
			<quad4 id="16">    86,   141,   136,    81</quad4>
			<quad4 id="17">    91,   146,   141,    86</quad4>
			<quad4 id="18">    96,   151,   146,    91</quad4>
			<quad4 id="19">   101,   156,   151,    96</quad4>
			<quad4 id="20">   106,   161,   156,   101</quad4>
<!-- ... 80 like lines cut -->
		</Surface>
	</Geometry>
	<Boundary>
		<fix bc="z">
			<node id="5"/>
			<node id="10"/>
			<node id="15"/>
			<node id="20"/>
			<node id="25"/>
			<node id="30"/>
			<node id="35"/>
			<node id="40"/>
			<node id="45"/>
			<node id="50"/>
			<node id="55"/>
			<node id="60"/>
			<node id="65"/>
			<node id="70"/>
			<node id="75"/>
			<node id="80"/>
			<node id="85"/>
			<node id="90"/>
			<node id="95"/>
			<node id="100"/>
<!-- ... 101 like lines cut -->
		</fix>
		<fix bc="y">
			<node id="5"/>
			<node id="10"/>
			<node id="15"/>
			<node id="20"/>
			<node id="25"/>
			<node id="30"/>
			<node id="35"/>
			<node id="40"/>
			<node id="45"/>
			<node id="50"/>
			<node id="55"/>
			<node id="60"/>
			<node id="65"/>
			<node id="70"/>
			<node id="75"/>
			<node id="80"/>
			<node id="85"/>
			<node id="90"/>
			<node id="95"/>
			<node id="100"/>
<!-- ... 101 like lines cut -->
		</fix>
		<fix bc="x">
			<node id="5"/>
			<node id="10"/>
			<node id="15"/>
			<node id="20"/>
			<node id="25"/>
			<node id="30"/>
			<node id="35"/>
			<node id="40"/>
			<node id="45"/>
			<node id="50"/>
			<node id="55"/>
			<node id="60"/>
			<node id="65"/>
			<node id="70"/>
			<node id="75"/>
			<node id="80"/>
			<node id="85"/>
			<node id="90"/>
			<node id="95"/>
			<node id="100"/>
<!-- ... 101 like lines cut -->
		</fix>
	</Boundary>
	<Contact>
		<contact type="rigid">
			<node id="606" rb="2"></node>
			<node id="607" rb="2"></node>
			<node id="608" rb="2"></node>
			<node id="609" rb="2"></node>
			<node id="610" rb="2"></node>
			<node id="611" rb="2"></node>
			<node id="612" rb="2"></node>
			<node id="613" rb="2"></node>
			<node id="614" rb="2"></node>
			<node id="615" rb="2"></node>
			<node id="616" rb="2"></node>
			<node id="617" rb="2"></node>
			<node id="618" rb="2"></node>
			<node id="619" rb="2"></node>
			<node id="620" rb="2"></node>
			<node id="621" rb="2"></node>
			<node id="622" rb="2"></node>
			<node id="623" rb="2"></node>
			<node id="624" rb="2"></node>
			<node id="625" rb="2"></node>
<!-- ... 173 like lines cut -->
		</contact>
		<contact type="sliding2">
			<laugon>1</laugon>
			<tolerance>0.5</tolerance>
			<penalty>1</penalty>
			<two_pass>0</two_pass>
			<auto_penalty>1</auto_penalty>
			<pressure_penalty>0</pressure_penalty>
			<symmetric_stiffness>0</symmetric_stiffness>
			<search_radius>1</search_radius>
			<surface type="master" set="MasterSurface00"/>
			<surface type="slave" set="SlaveSurface00"/>
		</contact>
	</Contact>
	<LoadData>
		<loadcurve id="1" type="linear">
			<loadpoint>0,0</loadpoint>
			<loadpoint>1,0.2</loadpoint>
		</loadcurve>
	</LoadData>
	<Output>
		<plotfile type="febio"></plotfile>
		<logfile>
			<element_data data="Ey">13</element_data>
		</logfile>
	</Output>
	<Step name="Step01">
		<Module type="solid"/>
		<Control>
			<title>Indent Ogden Unconstrained</title>
			<time_steps>10</time_steps>
			<step_size>0.1</step_size>
			<max_refs>25</max_refs>
			<max_ups>0</max_ups>
			<dtol>0.001</dtol>
			<etol>0.01</etol>
			<rtol>0</rtol>
			<lstol>0.9</lstol>
			<time_stepper>
				<dtmin>0.01</dtmin>
				<dtmax>0.1</dtmax>
				<max_retries>5</max_retries>
				<opt_iter>10</opt_iter>
			</time_stepper>
			<analysis type="static"/>
			<symmetric_stiffness>0</symmetric_stiffness>
		</Control>
		<Constraints>
			<rigid_body mat="2">
 				<fixed bc="x"/>
				<fixed bc="y"/>
				<fixed bc="Rx"/>
				<fixed bc="Ry"/>
				<fixed bc="Rz"/>
				<prescribed bc="z" lc="1">1</prescribed>
			</rigid_body>
		</Constraints>
	</Step>
</febio_spec>
