<?xml version="1.0" encoding="ISO-8859-1"?>
<!--
Problem Description:
	A serpentine surface is compressed along the x-direction experiencing self-contact and
	demonstrating the need of reducing the search_radius contact parameter from it's default
	value of 1.
Main Features:
	Contact
	search_radius
Secondary Features:
	
Materials:
	Neo-Hookean
Degrees of Freedom: 2318
Results:
	Steps Completed: 10
	Equilibrium Iterations: 44
	Right Hand Evaluations: 61
	Siffness Reformations: 44
	Other:
		The max effective stress is 0.365 at time t = 1.
Comments:
	
-->
<febio_spec version="2.0">
	<Module type="solid"/>
	<Control>
		<time_steps>10</time_steps>
		<step_size>0.1</step_size>
		<max_refs>15</max_refs>
		<max_ups>0</max_ups>
		<dtol>0.001</dtol>
		<etol>0.01</etol>
		<rtol>0</rtol>
		<lstol>0.9</lstol>
		<time_stepper>
			<dtmin>0.01</dtmin>
			<dtmax>0.1</dtmax>
			<max_retries>5</max_retries>
			<opt_iter>10</opt_iter>
		</time_stepper>
		<analysis type="static"/>
		<symmetric_stiffness>0</symmetric_stiffness>
	</Control>
	<Globals>
		<Constants>
			<T>0</T>
			<R>0</R>
			<Fc>0</Fc>
		</Constants>
	</Globals>
	<Material>
		<material id="1" name="Material1" type="neo-Hookean">
			<density>1</density>
			<E>1</E>
			<v>0.3</v>
		</material>
	</Material>
	<Geometry>
		<Nodes>
			<node id="1">-3.2000000e+000, 0.0000000e+000, 0.0000000e+000</node>
			<node id="2">-3.2000000e+000, 0.0000000e+000, 1.0000000e+000</node>
			<node id="3">-3.2000000e+000, 1.6666667e-001, 0.0000000e+000</node>
			<node id="4">-3.2000000e+000, 1.6666667e-001, 1.0000000e+000</node>
			<node id="5">-3.2000000e+000, 3.3333333e-001, 0.0000000e+000</node>
			<node id="6">-3.2000000e+000, 3.3333333e-001, 1.0000000e+000</node>
			<node id="7">-3.2000000e+000, 5.0000000e-001, 0.0000000e+000</node>
			<node id="8">-3.2000000e+000, 5.0000000e-001, 1.0000000e+000</node>
			<node id="9">-3.2000000e+000, 6.6666667e-001, 0.0000000e+000</node>
			<node id="10">-3.2000000e+000, 6.6666667e-001, 1.0000000e+000</node>
			<node id="11">-3.2000000e+000, 8.3333333e-001, 0.0000000e+000</node>
			<node id="12">-3.2000000e+000, 8.3333333e-001, 1.0000000e+000</node>
			<node id="13">-3.2000000e+000, 1.0000000e+000, 0.0000000e+000</node>
			<node id="14">-3.2000000e+000, 1.0000000e+000, 1.0000000e+000</node>
			<node id="15">-2.9750000e+000, 0.0000000e+000, 0.0000000e+000</node>
			<node id="16">-2.9750000e+000, 0.0000000e+000, 1.0000000e+000</node>
			<node id="17">-2.9750000e+000, 1.6666667e-001, 0.0000000e+000</node>
			<node id="18">-2.9750000e+000, 1.6666667e-001, 1.0000000e+000</node>
			<node id="19">-2.9750000e+000, 3.3333333e-001, 0.0000000e+000</node>
			<node id="20">-2.9750000e+000, 3.3333333e-001, 1.0000000e+000</node>
<!-- ... 1150 like lines cut -->
		</Nodes>
		<Elements type="hex8" mat="1" elset="Part4">
			<elem id="1">     1,    15,    17,     3,     2,    16,    18,     4</elem>
			<elem id="2">     3,    17,    19,     5,     4,    18,    20,     6</elem>
			<elem id="3">     5,    19,    21,     7,     6,    20,    22,     8</elem>
			<elem id="4">     7,    21,    23,     9,     8,    22,    24,    10</elem>
			<elem id="5">     9,    23,    25,    11,    10,    24,    26,    12</elem>
			<elem id="6">    11,    25,    27,    13,    12,    26,    28,    14</elem>
			<elem id="7">    15,    29,    31,    17,    16,    30,    32,    18</elem>
			<elem id="8">    17,    31,    33,    19,    18,    32,    34,    20</elem>
			<elem id="9">    19,    33,    35,    21,    20,    34,    36,    22</elem>
			<elem id="10">    21,    35,    37,    23,    22,    36,    38,    24</elem>
			<elem id="11">    23,    37,    39,    25,    24,    38,    40,    26</elem>
			<elem id="12">    25,    39,    41,    27,    26,    40,    42,    28</elem>
			<elem id="13">    29,    43,    45,    31,    30,    44,    46,    32</elem>
			<elem id="14">    31,    45,    47,    33,    32,    46,    48,    34</elem>
			<elem id="15">    33,    47,    49,    35,    34,    48,    50,    36</elem>
			<elem id="16">    35,    49,    51,    37,    36,    50,    52,    38</elem>
			<elem id="17">    37,    51,    53,    39,    38,    52,    54,    40</elem>
			<elem id="18">    39,    53,    55,    41,    40,    54,    56,    42</elem>
			<elem id="19">    43,    57,    59,    45,    44,    58,    60,    46</elem>
			<elem id="20">    45,    59,    61,    47,    46,    60,    62,    48</elem>
<!-- ... 444 like lines cut -->
		</Elements>
		<Surface name="MasterSurface01">
			<quad4 id="1">     3,     1,     2,     4</quad4>
			<quad4 id="2">     5,     3,     4,     6</quad4>
			<quad4 id="3">     7,     5,     6,     8</quad4>
			<quad4 id="4">     9,     7,     8,    10</quad4>
			<quad4 id="5">    11,     9,    10,    12</quad4>
			<quad4 id="6">    13,    11,    12,    14</quad4>
			<quad4 id="7">    81,    76,   161,   166</quad4>
			<quad4 id="8">    86,    81,   166,   171</quad4>
			<quad4 id="9">    91,    86,   171,   176</quad4>
			<quad4 id="10">    96,    91,   176,   181</quad4>
			<quad4 id="11">   101,    96,   181,   186</quad4>
			<quad4 id="12">   106,   101,   186,   191</quad4>
			<quad4 id="13">   111,   106,   191,   196</quad4>
			<quad4 id="14">   116,   111,   196,   201</quad4>
			<quad4 id="15">   121,   116,   201,   206</quad4>
			<quad4 id="16">   126,   121,   206,   211</quad4>
			<quad4 id="17">   131,   126,   211,   216</quad4>
			<quad4 id="18">   136,   131,   216,   221</quad4>
			<quad4 id="19">   141,   136,   221,   226</quad4>
			<quad4 id="20">   146,   141,   226,   231</quad4>
<!-- ... 96 like lines cut -->
		</Surface>
		<Surface name="SlaveSurface01">
			<quad4 id="1">     3,     1,     2,     4</quad4>
			<quad4 id="2">     5,     3,     4,     6</quad4>
			<quad4 id="3">     7,     5,     6,     8</quad4>
			<quad4 id="4">     9,     7,     8,    10</quad4>
			<quad4 id="5">    11,     9,    10,    12</quad4>
			<quad4 id="6">    13,    11,    12,    14</quad4>
			<quad4 id="7">    81,    76,   161,   166</quad4>
			<quad4 id="8">    86,    81,   166,   171</quad4>
			<quad4 id="9">    91,    86,   171,   176</quad4>
			<quad4 id="10">    96,    91,   176,   181</quad4>
			<quad4 id="11">   101,    96,   181,   186</quad4>
			<quad4 id="12">   106,   101,   186,   191</quad4>
			<quad4 id="13">   111,   106,   191,   196</quad4>
			<quad4 id="14">   116,   111,   196,   201</quad4>
			<quad4 id="15">   121,   116,   201,   206</quad4>
			<quad4 id="16">   126,   121,   206,   211</quad4>
			<quad4 id="17">   131,   126,   211,   216</quad4>
			<quad4 id="18">   136,   131,   216,   221</quad4>
			<quad4 id="19">   141,   136,   221,   226</quad4>
			<quad4 id="20">   146,   141,   226,   231</quad4>
<!-- ... 96 like lines cut -->
		</Surface>
		<Surface name="MasterSurface02">
			<quad4 id="1">    57,    59,    60,    58</quad4>
			<quad4 id="2">    59,    61,    62,    60</quad4>
			<quad4 id="3">    61,    63,    64,    62</quad4>
			<quad4 id="4">    63,    65,    66,    64</quad4>
			<quad4 id="5">    65,    67,    68,    66</quad4>
			<quad4 id="6">    67,    69,    70,    68</quad4>
			<quad4 id="7">    80,    85,   170,   165</quad4>
			<quad4 id="8">    85,    90,   175,   170</quad4>
			<quad4 id="9">    90,    95,   180,   175</quad4>
			<quad4 id="10">    95,   100,   185,   180</quad4>
			<quad4 id="11">   100,   105,   190,   185</quad4>
			<quad4 id="12">   105,   110,   195,   190</quad4>
			<quad4 id="13">   110,   115,   200,   195</quad4>
			<quad4 id="14">   115,   120,   205,   200</quad4>
			<quad4 id="15">   120,   125,   210,   205</quad4>
			<quad4 id="16">   125,   130,   215,   210</quad4>
			<quad4 id="17">   130,   135,   220,   215</quad4>
			<quad4 id="18">   135,   140,   225,   220</quad4>
			<quad4 id="19">   140,   145,   230,   225</quad4>
			<quad4 id="20">   145,   150,   235,   230</quad4>
<!-- ... 96 like lines cut -->
		</Surface>
		<Surface name="SlaveSurface02">
			<quad4 id="1">    57,    59,    60,    58</quad4>
			<quad4 id="2">    59,    61,    62,    60</quad4>
			<quad4 id="3">    61,    63,    64,    62</quad4>
			<quad4 id="4">    63,    65,    66,    64</quad4>
			<quad4 id="5">    65,    67,    68,    66</quad4>
			<quad4 id="6">    67,    69,    70,    68</quad4>
			<quad4 id="7">    80,    85,   170,   165</quad4>
			<quad4 id="8">    85,    90,   175,   170</quad4>
			<quad4 id="9">    90,    95,   180,   175</quad4>
			<quad4 id="10">    95,   100,   185,   180</quad4>
			<quad4 id="11">   100,   105,   190,   185</quad4>
			<quad4 id="12">   105,   110,   195,   190</quad4>
			<quad4 id="13">   110,   115,   200,   195</quad4>
			<quad4 id="14">   115,   120,   205,   200</quad4>
			<quad4 id="15">   120,   125,   210,   205</quad4>
			<quad4 id="16">   125,   130,   215,   210</quad4>
			<quad4 id="17">   130,   135,   220,   215</quad4>
			<quad4 id="18">   135,   140,   225,   220</quad4>
			<quad4 id="19">   140,   145,   230,   225</quad4>
			<quad4 id="20">   145,   150,   235,   230</quad4>
<!-- ... 96 like lines cut -->
		</Surface>
	</Geometry>
	<Boundary>
		<fix bc="z">
			<node id="1"/>
			<node id="2"/>
			<node id="3"/>
			<node id="4"/>
			<node id="5"/>
			<node id="6"/>
			<node id="7"/>
			<node id="8"/>
			<node id="9"/>
			<node id="10"/>
			<node id="11"/>
			<node id="12"/>
			<node id="13"/>
			<node id="14"/>
			<node id="15"/>
			<node id="16"/>
			<node id="17"/>
			<node id="18"/>
			<node id="19"/>
			<node id="20"/>
<!-- ... 1150 like lines cut -->
		</fix>
		<fix bc="y">
			<node id="1"/>
			<node id="2"/>
			<node id="15"/>
			<node id="16"/>
			<node id="29"/>
			<node id="30"/>
			<node id="43"/>
			<node id="44"/>
			<node id="57"/>
			<node id="58"/>
			<node id="1011"/>
			<node id="1012"/>
			<node id="1023"/>
			<node id="1024"/>
			<node id="1035"/>
			<node id="1036"/>
			<node id="1047"/>
			<node id="1048"/>
			<node id="1059"/>
			<node id="1060"/>
		</fix>
		<fix bc="x">
			<node id="1"/>
			<node id="2"/>
		</fix>
		<prescribe bc="x" lc="1">
			<node id="1059">1</node>
			<node id="1060">1</node>
		</prescribe>
	</Boundary>
	<Contact>
		<contact type="sliding-elastic">
			<laugon>0</laugon>
			<tolerance>0.2</tolerance>
			<gaptol>0</gaptol>
			<penalty>10</penalty>
			<auto_penalty>1</auto_penalty>
			<two_pass>0</two_pass>
			<search_tol>0.01</search_tol>
			<symmetric_stiffness>0</symmetric_stiffness>
			<search_radius>0.1</search_radius>
			<seg_up>0</seg_up>
			<tension>0</tension>
			<minaug>0</minaug>
			<maxaug>10</maxaug>
			<surface type="master" set="MasterSurface01"/>
			<surface type="slave" set="SlaveSurface01"/>
		</contact>
		<contact type="sliding-elastic">
			<laugon>0</laugon>
			<tolerance>0.2</tolerance>
			<gaptol>0</gaptol>
			<penalty>10</penalty>
			<auto_penalty>1</auto_penalty>
			<two_pass>0</two_pass>
			<search_tol>0.01</search_tol>
			<symmetric_stiffness>0</symmetric_stiffness>
			<search_radius>0.1</search_radius>
			<seg_up>0</seg_up>
			<tension>0</tension>
			<minaug>0</minaug>
			<maxaug>10</maxaug>
			<surface type="master" set="MasterSurface02"/>
			<surface type="slave" set="SlaveSurface02"/>
		</contact>
	</Contact>
	<LoadData>
		<loadcurve id="1" type="smooth">
			<loadpoint>0,0</loadpoint>
			<loadpoint>1,-1.5</loadpoint>
		</loadcurve>
	</LoadData>
	<Output>
		<plotfile type="febio">
			<var type="contact gap"/>
			<var type="contact pressure"/>
			<var type="displacement"/>
			<var type="relative volume"/>
			<var type="stress"/>
		</plotfile>
		<logfile>
			<element_data data="sx">411</element_data>
		</logfile>
	</Output>
</febio_spec>
