<?xml version="1.0" encoding="ISO-8859-1"?>
<!--
Problem Description:
	Patch contact of multiphasic rectangular strips in unconfined compression stress relaxation
Main Features:
	Multiphasic contact
Secondary Features:
	
Materials:
	Multiphasic
Degrees of Freedom: 808
Results:
	Steps Completed: 58
	Equilibrium Iterations: 263
	Right Hand Evaluations: 367
	Siffness Reformations: 263
	Other:
		The effective fluid pressure at node 1 and t=4001 is -0.5218
Comments:
	
-->
<febio_spec version="2.0">
	<Globals>
		<Constants>
			<T>293</T>
			<R>8.314e-06</R>
			<Fc>9.65e-05</Fc>
		</Constants>
		<Solutes>
			<solute id="1" name="Na">
				<charge_number>1</charge_number>
				<molar_mass>1</molar_mass>
				<density>1</density>
			</solute>
			<solute id="2" name="Cl">
				<charge_number>-1</charge_number>
				<molar_mass>1</molar_mass>
				<density>1</density>
			</solute>
		</Solutes>
	</Globals>
	<Material>
		<material id="1" name="Top Layer" type="multiphasic">
			<phi0>0.2</phi0>
			<fixed_charge_density lc="2">-100</fixed_charge_density>
			<solid type="Holmes-Mow">
				<density>1</density>
				<E>1</E>
				<v>0.3</v>
				<beta>0.5</beta>
			</solid>
			<permeability type="perm-const-iso">
				<perm>0.001</perm>
			</permeability>
			<osmotic_coefficient type="osm-coef-const">
				<osmcoef>1</osmcoef>
			</osmotic_coefficient>
			<solute sol="1">
				<diffusivity type="diff-const-iso">
					<free_diff>0.001</free_diff>
					<diff>0.0005</diff>
				</diffusivity>
				<solubility type="solub-const">
					<solub>1</solub>
				</solubility>
			</solute>
			<solute sol="2">
				<diffusivity type="diff-const-iso">
					<free_diff>0.0016</free_diff>
					<diff>0.0008</diff>
				</diffusivity>
				<solubility type="solub-const">
					<solub>1</solub>
				</solubility>
			</solute>
		</material>
		<material id="2" name="Bottom Layer" type="multiphasic">
			<phi0>0.2</phi0>
			<fixed_charge_density lc="3">-100</fixed_charge_density>
			<solid type="Holmes-Mow">
				<density>1</density>
				<E>1</E>
				<v>0.3</v>
				<beta>0.5</beta>
			</solid>
			<permeability type="perm-const-iso">
				<perm>0.001</perm>
			</permeability>
			<osmotic_coefficient type="osm-coef-const">
				<osmcoef>1</osmcoef>
			</osmotic_coefficient>
			<solute sol="1">
				<diffusivity type="diff-const-iso">
					<free_diff>0.001</free_diff>
					<diff>0.0005</diff>
				</diffusivity>
				<solubility type="solub-const">
					<solub>1</solub>
				</solubility>
			</solute>
			<solute sol="2">
				<diffusivity type="diff-const-iso">
					<free_diff>0.0016</free_diff>
					<diff>0.0008</diff>
				</diffusivity>
				<solubility type="solub-const">
					<solub>1</solub>
				</solubility>
			</solute>
		</material>
	</Material>
	<Geometry>
		<Nodes>
			<node id="1">  0.0000000e+00, -1.0000000e+00,  0.0000000e+00</node>
			<node id="2">  0.0000000e+00, -1.0000000e+00,  2.5000000e-01</node>
			<node id="3">  0.0000000e+00,  0.0000000e+00,  0.0000000e+00</node>
			<node id="4">  0.0000000e+00,  0.0000000e+00,  2.5000000e-01</node>
			<node id="5">  4.6533060e-01, -1.0000000e+00,  0.0000000e+00</node>
			<node id="6">  4.6533060e-01, -1.0000000e+00,  2.5000000e-01</node>
			<node id="7">  4.6533060e-01,  0.0000000e+00,  0.0000000e+00</node>
			<node id="8">  4.6533060e-01,  0.0000000e+00,  2.5000000e-01</node>
			<node id="9">  8.6086160e-01, -1.0000000e+00,  0.0000000e+00</node>
			<node id="10">  8.6086160e-01, -1.0000000e+00,  2.5000000e-01</node>
			<node id="11">  8.6086160e-01,  0.0000000e+00,  0.0000000e+00</node>
			<node id="12">  8.6086160e-01,  0.0000000e+00,  2.5000000e-01</node>
			<node id="13">  1.1970630e+00, -1.0000000e+00,  0.0000000e+00</node>
			<node id="14">  1.1970630e+00, -1.0000000e+00,  2.5000000e-01</node>
			<node id="15">  1.1970630e+00,  0.0000000e+00,  0.0000000e+00</node>
			<node id="16">  1.1970630e+00,  0.0000000e+00,  2.5000000e-01</node>
			<node id="17">  1.4828341e+00, -1.0000000e+00,  0.0000000e+00</node>
			<node id="18">  1.4828341e+00, -1.0000000e+00,  2.5000000e-01</node>
			<node id="19">  1.4828341e+00,  0.0000000e+00,  0.0000000e+00</node>
			<node id="20">  1.4828341e+00,  0.0000000e+00,  2.5000000e-01</node>
<!-- ... 152 like lines cut -->
		</Nodes>
		<Elements type="hex8" mat="2" elset="Part1">
			<elem id="1">     1,     5,     7,     3,     2,     6,     8,     4</elem>
			<elem id="2">     5,     9,    11,     7,     6,    10,    12,     8</elem>
			<elem id="3">     9,    13,    15,    11,    10,    14,    16,    12</elem>
			<elem id="4">    13,    17,    19,    15,    14,    18,    20,    16</elem>
			<elem id="5">    17,    21,    23,    19,    18,    22,    24,    20</elem>
			<elem id="6">    21,    25,    27,    23,    22,    26,    28,    24</elem>
			<elem id="7">    25,    29,    31,    27,    26,    30,    32,    28</elem>
			<elem id="8">    29,    33,    35,    31,    30,    34,    36,    32</elem>
			<elem id="9">    33,    37,    39,    35,    34,    38,    40,    36</elem>
			<elem id="10">    37,    41,    43,    39,    38,    42,    44,    40</elem>
			<elem id="11">    41,    45,    47,    43,    42,    46,    48,    44</elem>
			<elem id="12">    45,    49,    51,    47,    46,    50,    52,    48</elem>
			<elem id="13">    49,    53,    55,    51,    50,    54,    56,    52</elem>
			<elem id="14">    53,    57,    59,    55,    54,    58,    60,    56</elem>
			<elem id="15">    57,    61,    63,    59,    58,    62,    64,    60</elem>
			<elem id="16">    61,    65,    67,    63,    62,    66,    68,    64</elem>
			<elem id="17">    65,    69,    71,    67,    66,    70,    72,    68</elem>
			<elem id="18">    69,    73,    75,    71,    70,    74,    76,    72</elem>
			<elem id="19">    73,    77,    79,    75,    74,    78,    80,    76</elem>
			<elem id="20">    77,    81,    83,    79,    78,    82,    84,    80</elem>
			<elem id="21">    81,    85,    87,    83,    82,    86,    88,    84</elem>
		</Elements>
		<Elements type="hex8" mat="1" elset="Part2">
			<elem id="22">    89,    93,    95,    91,    90,    94,    96,    92</elem>
			<elem id="23">    93,    97,    99,    95,    94,    98,   100,    96</elem>
			<elem id="24">    97,   101,   103,    99,    98,   102,   104,   100</elem>
			<elem id="25">   101,   105,   107,   103,   102,   106,   108,   104</elem>
			<elem id="26">   105,   109,   111,   107,   106,   110,   112,   108</elem>
			<elem id="27">   109,   113,   115,   111,   110,   114,   116,   112</elem>
			<elem id="28">   113,   117,   119,   115,   114,   118,   120,   116</elem>
			<elem id="29">   117,   121,   123,   119,   118,   122,   124,   120</elem>
			<elem id="30">   121,   125,   127,   123,   122,   126,   128,   124</elem>
			<elem id="31">   125,   129,   131,   127,   126,   130,   132,   128</elem>
			<elem id="32">   129,   133,   135,   131,   130,   134,   136,   132</elem>
			<elem id="33">   133,   137,   139,   135,   134,   138,   140,   136</elem>
			<elem id="34">   137,   141,   143,   139,   138,   142,   144,   140</elem>
			<elem id="35">   141,   145,   147,   143,   142,   146,   148,   144</elem>
			<elem id="36">   145,   149,   151,   147,   146,   150,   152,   148</elem>
			<elem id="37">   149,   153,   155,   151,   150,   154,   156,   152</elem>
			<elem id="38">   153,   157,   159,   155,   154,   158,   160,   156</elem>
			<elem id="39">   157,   161,   163,   159,   158,   162,   164,   160</elem>
			<elem id="40">   161,   165,   167,   163,   162,   166,   168,   164</elem>
			<elem id="41">   165,   169,   171,   167,   166,   170,   172,   168</elem>
		</Elements>
	</Geometry>
	<Boundary>
		<fix bc="x">
			<node id="1"/>
			<node id="2"/>
			<node id="3"/>
			<node id="4"/>
			<node id="89"/>
			<node id="90"/>
			<node id="91"/>
			<node id="92"/>
		</fix>
		<fix bc="y">
			<node id="1"/>
			<node id="2"/>
			<node id="5"/>
			<node id="6"/>
			<node id="9"/>
			<node id="10"/>
			<node id="13"/>
			<node id="14"/>
			<node id="17"/>
			<node id="18"/>
			<node id="21"/>
			<node id="22"/>
			<node id="25"/>
			<node id="26"/>
			<node id="29"/>
			<node id="30"/>
			<node id="33"/>
			<node id="34"/>
			<node id="37"/>
			<node id="38"/>
<!-- ... 24 like lines cut -->
		</fix>
		<fix bc="z">
			<node id="1"/>
			<node id="2"/>
			<node id="3"/>
			<node id="4"/>
			<node id="5"/>
			<node id="6"/>
			<node id="7"/>
			<node id="8"/>
			<node id="9"/>
			<node id="10"/>
			<node id="11"/>
			<node id="12"/>
			<node id="13"/>
			<node id="14"/>
			<node id="15"/>
			<node id="16"/>
			<node id="17"/>
			<node id="18"/>
			<node id="19"/>
			<node id="20"/>
<!-- ... 324 like lines cut -->
		</fix>
		<prescribe bc="p" lc="4">
			<node id="85">-0.730801</node>
			<node id="86">-0.730801</node>
			<node id="87">-0.730801</node>
			<node id="88">-0.730801</node>
			<node id="169">-0.730801</node>
			<node id="170">-0.730801</node>
			<node id="171">-0.730801</node>
			<node id="172">-0.730801</node>
		</prescribe>
		<prescribe bc="c1" lc="5">
			<node id="85">150</node>
			<node id="86">150</node>
			<node id="87">150</node>
			<node id="88">150</node>
			<node id="169">150</node>
			<node id="170">150</node>
			<node id="171">150</node>
			<node id="172">150</node>
		</prescribe>
		<prescribe bc="c2" lc="6">
			<node id="85">150</node>
			<node id="86">150</node>
			<node id="87">150</node>
			<node id="88">150</node>
			<node id="169">150</node>
			<node id="170">150</node>
			<node id="171">150</node>
			<node id="172">150</node>
		</prescribe>
		<prescribe bc="y" lc="7">
			<node id="91">-0.5</node>
			<node id="92">-0.5</node>
			<node id="95">-0.5</node>
			<node id="96">-0.5</node>
			<node id="99">-0.5</node>
			<node id="100">-0.5</node>
			<node id="103">-0.5</node>
			<node id="104">-0.5</node>
			<node id="107">-0.5</node>
			<node id="108">-0.5</node>
			<node id="111">-0.5</node>
			<node id="112">-0.5</node>
			<node id="115">-0.5</node>
			<node id="116">-0.5</node>
			<node id="119">-0.5</node>
			<node id="120">-0.5</node>
			<node id="123">-0.5</node>
			<node id="124">-0.5</node>
			<node id="127">-0.5</node>
			<node id="128">-0.5</node>
<!-- ... 22 like lines cut -->
		</prescribe>
	</Boundary>
	<Contact>
		<contact type="sliding-multiphasic" name="MultiphasicContact01">
			<laugon>1</laugon>
			<tolerance>0.05</tolerance>
			<penalty>1</penalty>
			<two_pass>1</two_pass>
			<auto_penalty>1</auto_penalty>
			<pressure_penalty>1</pressure_penalty>
			<symmetric_stiffness>0</symmetric_stiffness>
			<concentration_penalty>1</concentration_penalty>
			<ambient_pressure>-0.730801</ambient_pressure>
			<ambient_concentration sol="1">150</ambient_concentration>
			<ambient_concentration sol="2">150</ambient_concentration>
			<search_radius>1</search_radius>
			<surface type="master">
				<quad4 id="1">    89,    93,    94,    90</quad4>
				<quad4 id="2">    93,    97,    98,    94</quad4>
				<quad4 id="3">    97,   101,   102,    98</quad4>
				<quad4 id="4">   101,   105,   106,   102</quad4>
				<quad4 id="5">   105,   109,   110,   106</quad4>
				<quad4 id="6">   109,   113,   114,   110</quad4>
				<quad4 id="7">   113,   117,   118,   114</quad4>
				<quad4 id="8">   117,   121,   122,   118</quad4>
				<quad4 id="9">   121,   125,   126,   122</quad4>
				<quad4 id="10">   125,   129,   130,   126</quad4>
				<quad4 id="11">   129,   133,   134,   130</quad4>
				<quad4 id="12">   133,   137,   138,   134</quad4>
				<quad4 id="13">   137,   141,   142,   138</quad4>
				<quad4 id="14">   141,   145,   146,   142</quad4>
				<quad4 id="15">   145,   149,   150,   146</quad4>
				<quad4 id="16">   149,   153,   154,   150</quad4>
				<quad4 id="17">   153,   157,   158,   154</quad4>
				<quad4 id="18">   157,   161,   162,   158</quad4>
				<quad4 id="19">   161,   165,   166,   162</quad4>
				<quad4 id="20">   165,   169,   170,   166</quad4>
			</surface>
			<surface type="slave">
				<quad4 id="1">    87,    83,    84,    88</quad4>
				<quad4 id="2">    83,    79,    80,    84</quad4>
				<quad4 id="3">    79,    75,    76,    80</quad4>
				<quad4 id="4">    75,    71,    72,    76</quad4>
				<quad4 id="5">    71,    67,    68,    72</quad4>
				<quad4 id="6">    67,    63,    64,    68</quad4>
				<quad4 id="7">    63,    59,    60,    64</quad4>
				<quad4 id="8">    59,    55,    56,    60</quad4>
				<quad4 id="9">    55,    51,    52,    56</quad4>
				<quad4 id="10">    51,    47,    48,    52</quad4>
				<quad4 id="11">    47,    43,    44,    48</quad4>
				<quad4 id="12">    43,    39,    40,    44</quad4>
				<quad4 id="13">    39,    35,    36,    40</quad4>
				<quad4 id="14">    35,    31,    32,    36</quad4>
				<quad4 id="15">    31,    27,    28,    32</quad4>
				<quad4 id="16">    27,    23,    24,    28</quad4>
				<quad4 id="17">    23,    19,    20,    24</quad4>
				<quad4 id="18">    19,    15,    16,    20</quad4>
				<quad4 id="19">    15,    11,    12,    16</quad4>
				<quad4 id="20">    11,     7,     8,    12</quad4>
				<quad4 id="21">     7,     3,     4,     8</quad4>
			</surface>
		</contact>
	</Contact>
	<Initial>
		<concentration sol="1">
			<node id="1">150</node>
			<node id="2">150</node>
			<node id="3">150</node>
			<node id="4">150</node>
			<node id="5">150</node>
			<node id="6">150</node>
			<node id="7">150</node>
			<node id="8">150</node>
			<node id="9">150</node>
			<node id="10">150</node>
			<node id="11">150</node>
			<node id="12">150</node>
			<node id="13">150</node>
			<node id="14">150</node>
			<node id="15">150</node>
			<node id="16">150</node>
			<node id="17">150</node>
			<node id="18">150</node>
			<node id="19">150</node>
			<node id="20">150</node>
<!-- ... 152 like lines cut -->
		</concentration>
		<concentration sol="2">
			<node id="1">150</node>
			<node id="2">150</node>
			<node id="3">150</node>
			<node id="4">150</node>
			<node id="5">150</node>
			<node id="6">150</node>
			<node id="7">150</node>
			<node id="8">150</node>
			<node id="9">150</node>
			<node id="10">150</node>
			<node id="11">150</node>
			<node id="12">150</node>
			<node id="13">150</node>
			<node id="14">150</node>
			<node id="15">150</node>
			<node id="16">150</node>
			<node id="17">150</node>
			<node id="18">150</node>
			<node id="19">150</node>
			<node id="20">150</node>
<!-- ... 152 like lines cut -->
		</concentration>
		<fluid_pressure>
			<node id="1">-0.730801</node>
			<node id="2">-0.730801</node>
			<node id="3">-0.730801</node>
			<node id="4">-0.730801</node>
			<node id="5">-0.730801</node>
			<node id="6">-0.730801</node>
			<node id="7">-0.730801</node>
			<node id="8">-0.730801</node>
			<node id="9">-0.730801</node>
			<node id="10">-0.730801</node>
			<node id="11">-0.730801</node>
			<node id="12">-0.730801</node>
			<node id="13">-0.730801</node>
			<node id="14">-0.730801</node>
			<node id="15">-0.730801</node>
			<node id="16">-0.730801</node>
			<node id="17">-0.730801</node>
			<node id="18">-0.730801</node>
			<node id="19">-0.730801</node>
			<node id="20">-0.730801</node>
<!-- ... 152 like lines cut -->
		</fluid_pressure>
	</Initial>
	<LoadData>
		<loadcurve id="1" type="step">
			<point>0,0</point>
			<point>1,0.1</point>
			<point>2,0.1</point>
			<point>11,1</point>
			<point>101,10</point>
			<point>1001,100</point>
			<point>10001,1000</point>
		</loadcurve>
		<loadcurve id="2" type="smooth">
			<point>0,0</point>
			<point>1,1</point>
		</loadcurve>
		<loadcurve id="3" type="smooth">
			<point>0,0</point>
			<point>1,1</point>
		</loadcurve>
		<loadcurve id="4" type="step">
			<point>0,0</point>
			<point>1,1</point>
		</loadcurve>
		<loadcurve id="5" type="step">
			<point>0,0</point>
			<point>1,1</point>
		</loadcurve>
		<loadcurve id="6" type="step">
			<point>0,0</point>
			<point>1,1</point>
		</loadcurve>
		<loadcurve id="7" type="linear">
			<point>0,0</point>
			<point>1,0</point>
			<point>2,1</point>
		</loadcurve>
	</LoadData>
	<Output>
		<plotfile type="febio">
			<var type="contact area"/>
			<var type="contact force"/>
			<var type="contact gap"/>
			<var type="contact pressure"/>
			<var type="contact traction"/>
			<var type="current density"/>
			<var type="displacement"/>
			<var type="effective fluid pressure"/>
			<var type="effective solute 1 concentration"/>
			<var type="effective solute 2 concentration"/>
			<var type="electric potential"/>
			<var type="fixed charge density"/>
			<var type="fluid flux"/>
			<var type="fluid force"/>
			<var type="fluid pressure"/>
			<var type="osmolarity"/>
			<var type="pressure gap"/>
			<var type="relative volume"/>
			<var type="solute 1 concentration"/>
			<var type="solute 2 concentration"/>
			<var type="solute 1 flux"/>
			<var type="solute 2 flux"/>
			<var type="stress"/>
		</plotfile>
	</Output>
	<Step name="Step01 Swelling">
		<Module type="multiphasic"/>
		<Control>
			<time_steps>10</time_steps>
			<step_size>0.1</step_size>
			<max_refs>15</max_refs>
			<max_ups>0</max_ups>
			<dtol>0.001</dtol>
			<etol>0.01</etol>
			<rtol>0</rtol>
			<ptol>0.01</ptol>
			<ctol>0.01</ctol>
			<lstol>0.9</lstol>
			<time_stepper>
				<dtmin>0.01</dtmin>
				<dtmax>0.1</dtmax>
				<max_retries>5</max_retries>
				<opt_iter>10</opt_iter>
			</time_stepper>
			<analysis type="steady-state"/>
			<symmetric_biphasic>0</symmetric_biphasic>
		</Control>
	</Step>
	<Step name="Step02 Loading">
		<Module type="multiphasic"/>
		<Control>
			<time_steps>40000</time_steps>
			<step_size>0.1</step_size>
			<max_refs>15</max_refs>
			<max_ups>0</max_ups>
			<dtol>0.001</dtol>
			<etol>0.01</etol>
			<rtol>0</rtol>
			<ptol>0.01</ptol>
			<ctol>0.01</ctol>
			<lstol>0.9</lstol>
			<time_stepper>
				<dtmin>0.01</dtmin>
				<dtmax lc="1"></dtmax>
				<max_retries>5</max_retries>
				<opt_iter>10</opt_iter>
			</time_stepper>
			<symmetric_biphasic>0</symmetric_biphasic>
		</Control>
	</Step>
</febio_spec>
