<?xml version="1.0" encoding="ISO-8859-1"?>
<!--
Problem Description:
	A smaller element with a prescribed z-displacement of -0.1 units from time t=0 to
	t=0.5 and x-displacement of 0.3 units from time t=0.5 to t=1 compresses a larger
	element with contact and friction.
Main Features:
	Sliding Contact with Friction using sliding-tension-compression
Secondary Features:
	Broyden method
Materials:
	Neo-Hookean
Degrees of Freedom: 32
Results:
	Steps Completed: 50
	Equilibrium Iterations: 380
	Right Hand Evaluations: 525
	Siffness Reformations: 56
	Other:
		The minimum edge angle for the smaller element is 75.1 degrees at time t=1.
Comments:
	
-->
<febio_spec version="2.0">
	<Module type="solid"/>
	<Control>
		<title>Element Contact with Friction</title>
		<time_steps>50</time_steps>
		<step_size>0.02</step_size>
		<max_refs>15</max_refs>
		<max_ups>10</max_ups>
		<qnmethod>2</qnmethod>
		<dtol>0.001</dtol>
		<etol>0.01</etol>
		<rtol>0</rtol>
		<lstol>0.9</lstol>
		<symmetric_stiffness>0</symmetric_stiffness>
		<analysis type="static"/>
	</Control>
	<Globals>
		<Constants>
			<T>0</T>
			<R>0</R>
			<Fc>0</Fc>
		</Constants>
	</Globals>
	<Material>
		<material id="1" name="Material 1" type="neo-Hookean">
			<density>1</density>
			<E>1</E>
			<v>0</v>
		</material>
		<material id="2" name="Material 2" type="neo-Hookean">
			<density>1</density>
			<E>1</E>
			<v>0</v>
		</material>
	</Material>
	<Geometry>
		<Nodes>
			<node id="1">-5.0000000e-001,-5.0000000e-001, 0.0000000e+000</node>
			<node id="2">-5.0000000e-001,-5.0000000e-001, 1.0000000e+000</node>
			<node id="3">-5.0000000e-001, 5.0000000e-001, 0.0000000e+000</node>
			<node id="4">-5.0000000e-001, 5.0000000e-001, 1.0000000e+000</node>
			<node id="5"> 5.0000000e-001,-5.0000000e-001, 0.0000000e+000</node>
			<node id="6"> 5.0000000e-001,-5.0000000e-001, 1.0000000e+000</node>
			<node id="7"> 5.0000000e-001, 5.0000000e-001, 0.0000000e+000</node>
			<node id="8"> 5.0000000e-001, 5.0000000e-001, 1.0000000e+000</node>
			<node id="9">-2.5000000e-001,-2.5000000e-001, 1.0000000e+000</node>
			<node id="10">-2.5000000e-001,-2.5000000e-001, 1.5000000e+000</node>
			<node id="11">-2.5000000e-001, 2.5000000e-001, 1.0000000e+000</node>
			<node id="12">-2.5000000e-001, 2.5000000e-001, 1.5000000e+000</node>
			<node id="13"> 2.5000000e-001,-2.5000000e-001, 1.0000000e+000</node>
			<node id="14"> 2.5000000e-001,-2.5000000e-001, 1.5000000e+000</node>
			<node id="15"> 2.5000000e-001, 2.5000000e-001, 1.0000000e+000</node>
			<node id="16"> 2.5000000e-001, 2.5000000e-001, 1.5000000e+000</node>
		</Nodes>
		<Elements type="hex8" mat="1" elset="Part7">
			<elem id="1">     9,    13,    15,    11,    10,    14,    16,    12</elem>
		</Elements>
		<Elements type="hex8" mat="2" elset="Part8">
			<elem id="2">     1,     5,     7,     3,     2,     6,     8,     4</elem>
		</Elements>
		<Surface name="MasterSurface01">
			<quad4 id="1">     2,     6,     8,     4</quad4>
		</Surface>
		<Surface name="SlaveSurface01">
			<quad4 id="1">    11,    15,    13,     9</quad4>
		</Surface>
	</Geometry>
	<Boundary>
		<fix bc="z">
			<node id="1"/>
			<node id="3"/>
			<node id="5"/>
			<node id="7"/>
		</fix>
		<fix bc="y">
			<node id="1"/>
			<node id="3"/>
			<node id="5"/>
			<node id="7"/>
			<node id="10"/>
			<node id="12"/>
			<node id="14"/>
			<node id="16"/>
		</fix>
		<fix bc="x">
			<node id="1"/>
			<node id="3"/>
			<node id="5"/>
			<node id="7"/>
		</fix>
		<prescribe bc="x" lc="1">
			<node id="10">1</node>
			<node id="12">1</node>
			<node id="14">1</node>
			<node id="16">1</node>
		</prescribe>
		<prescribe bc="z" lc="2">
			<node id="10">1</node>
			<node id="12">1</node>
			<node id="14">1</node>
			<node id="16">1</node>
		</prescribe>
	</Boundary>
	<Contact>
		<contact type="sliding-tension-compression">
			<laugon>1</laugon>
			<tolerance>0.01</tolerance>
			<penalty>5</penalty>
			<two_pass>0</two_pass>
			<auto_penalty>0</auto_penalty>
			<fric_coeff>0.99</fric_coeff>
			<search_tol>0.01</search_tol>
			<minaug>0</minaug>
			<maxaug>10</maxaug>
			<gaptol>0</gaptol>
			<seg_up>0</seg_up>
			<symmetric_stiffness>0</symmetric_stiffness>
			<surface type="master" set="MasterSurface01"/>
			<surface type="slave" set="SlaveSurface01"/>
		</contact>
	</Contact>
	<LoadData>
		<loadcurve id="1" type="linear">
			<loadpoint>0,0</loadpoint>
			<loadpoint>0.5,0</loadpoint>
			<loadpoint>1,0.3</loadpoint>
		</loadcurve>
		<loadcurve id="2" type="linear">
			<loadpoint>0,0</loadpoint>
			<loadpoint>0.5,-0.1</loadpoint>
			<loadpoint>1,-0.1</loadpoint>
		</loadcurve>
	</LoadData>
	<Output>
		<plotfile type="febio">
		  <var type="displacement"/>
		  <var type="stress"/>
		  <var type="contact force"/>
		  <var type="contact area"/>
		  <var type="contact stick"/>
		  <var type="contact gap"/>
		  <var type="contact traction"/>
		  <var type="contact pressure"/>
		</plotfile>
		<logfile>
			<element_data data="Ez">1</element_data>
		</logfile>
	</Output>
</febio_spec>
