<?xml version="1.0" encoding="ISO-8859-1"?>
<!--
Problem Description:
	Two cylindrical tubes at 90 degrees are compressed against each other.  The ends of
	one tube are constrained in x,y,z and the ends of the other tube have a prescribed
	displacement of -6.0 units in the x-direction.
Main Features:
	Sliding Contact with Friction using sliding-elastic
Secondary Features:
	
Materials:
	Neo-Hookean
Degrees of Freedom: 5492
Results:
	Steps Completed: 50
	Equilibrium Iterations: 279
	Right Hand Evaluations: 395
	Siffness Reformations: 53
	Other:
		The center node on the back of the horizontal tube (node 1491) has an x-displacement
		of -4.138 at time t=1.
Comments:
	This problem is the same as co15 but with friction.  Two vertical lines intersecting the plane
	y = 0 and the verticle tube are constrained in the y-direction and two horizontal lines
	intersecting the plane z = 5 and the horizontal tube are constrained in the z-direction.
-->
<febio_spec version="2.0">
	<Module type="solid"/>
	<Control>
		<title>Two Cylinder Compression with Friction</title>
		<time_steps>50</time_steps>
		<step_size>0.02</step_size>
		<max_refs>15</max_refs>
		<max_ups>10</max_ups>
		<qnmethod>2</qnmethod>
		<dtol>0.001</dtol>
		<etol>0.01</etol>
		<rtol>0</rtol>
		<lstol>0.9</lstol>
		<time_stepper>
			<dtmin>0.01</dtmin>
			<dtmax>0.02</dtmax>
			<max_retries>5</max_retries>
			<opt_iter>150</opt_iter>
		</time_stepper>
		<symmetric_stiffness>0</symmetric_stiffness>
		<analysis type="static"/>
	</Control>
	<Globals>
		<Constants>
			<T>0</T>
			<R>0</R>
			<Fc>0</Fc>
		</Constants>
	</Globals>
	<Material>
		<material id="1" name="Material1" type="neo-Hookean">
			<density>1</density>
			<E>1</E>
			<v>0.33</v>
		</material>
		<material id="2" name="Material2" type="neo-Hookean">
			<density>1</density>
			<E>1</E>
			<v>0.33</v>
		</material>
	</Material>
	<Geometry>
		<Nodes>
			<node id="1"> 8.0000000e-001, 0.0000000e+000, 0.0000000e+000</node>
			<node id="2"> 9.0000000e-001, 0.0000000e+000, 0.0000000e+000</node>
			<node id="3"> 1.0000000e+000, 0.0000000e+000, 0.0000000e+000</node>
			<node id="4"> 7.3910363e-001, 3.0614674e-001, 0.0000000e+000</node>
			<node id="5"> 8.3149158e-001, 3.4441508e-001, 0.0000000e+000</node>
			<node id="6"> 9.2387954e-001, 3.8268343e-001, 0.0000000e+000</node>
			<node id="7"> 5.6568543e-001, 5.6568542e-001, 0.0000000e+000</node>
			<node id="8"> 6.3639611e-001, 6.3639609e-001, 0.0000000e+000</node>
			<node id="9"> 7.0710679e-001, 7.0710677e-001, 0.0000000e+000</node>
			<node id="10"> 3.0614676e-001, 7.3910362e-001, 0.0000000e+000</node>
			<node id="11"> 3.4441511e-001, 8.3149157e-001, 0.0000000e+000</node>
			<node id="12"> 3.8268345e-001, 9.2387952e-001, 0.0000000e+000</node>
			<node id="13"> 2.1435917e-008, 8.0000000e-001, 0.0000000e+000</node>
			<node id="14"> 2.4115407e-008, 9.0000000e-001, 0.0000000e+000</node>
			<node id="15"> 2.6794897e-008, 1.0000000e+000, 0.0000000e+000</node>
			<node id="16">-3.0614672e-001, 7.3910364e-001, 0.0000000e+000</node>
			<node id="17">-3.4441506e-001, 8.3149159e-001, 0.0000000e+000</node>
			<node id="18">-3.8268340e-001, 9.2387955e-001, 0.0000000e+000</node>
			<node id="19">-5.6568540e-001, 5.6568545e-001, 0.0000000e+000</node>
			<node id="20">-6.3639608e-001, 6.3639613e-001, 0.0000000e+000</node>
<!-- ... 1996 like lines cut -->
		</Nodes>
		<Elements type="hex8" mat="1" elset="Part15">
			<elem id="1">  1009,  1010,  1013,  1012,  1057,  1058,  1061,  1060</elem>
			<elem id="2">  1010,  1011,  1014,  1013,  1058,  1059,  1062,  1061</elem>
			<elem id="3">  1012,  1013,  1016,  1015,  1060,  1061,  1064,  1063</elem>
			<elem id="4">  1013,  1014,  1017,  1016,  1061,  1062,  1065,  1064</elem>
			<elem id="5">  1015,  1016,  1019,  1018,  1063,  1064,  1067,  1066</elem>
			<elem id="6">  1016,  1017,  1020,  1019,  1064,  1065,  1068,  1067</elem>
			<elem id="7">  1018,  1019,  1022,  1021,  1066,  1067,  1070,  1069</elem>
			<elem id="8">  1019,  1020,  1023,  1022,  1067,  1068,  1071,  1070</elem>
			<elem id="9">  1021,  1022,  1025,  1024,  1069,  1070,  1073,  1072</elem>
			<elem id="10">  1022,  1023,  1026,  1025,  1070,  1071,  1074,  1073</elem>
			<elem id="11">  1024,  1025,  1028,  1027,  1072,  1073,  1076,  1075</elem>
			<elem id="12">  1025,  1026,  1029,  1028,  1073,  1074,  1077,  1076</elem>
			<elem id="13">  1027,  1028,  1031,  1030,  1075,  1076,  1079,  1078</elem>
			<elem id="14">  1028,  1029,  1032,  1031,  1076,  1077,  1080,  1079</elem>
			<elem id="15">  1030,  1031,  1034,  1033,  1078,  1079,  1082,  1081</elem>
			<elem id="16">  1031,  1032,  1035,  1034,  1079,  1080,  1083,  1082</elem>
			<elem id="17">  1033,  1034,  1037,  1036,  1081,  1082,  1085,  1084</elem>
			<elem id="18">  1034,  1035,  1038,  1037,  1082,  1083,  1086,  1085</elem>
			<elem id="19">  1036,  1037,  1040,  1039,  1084,  1085,  1088,  1087</elem>
			<elem id="20">  1037,  1038,  1041,  1040,  1085,  1086,  1089,  1088</elem>
<!-- ... 620 like lines cut -->
		</Elements>
		<Elements type="hex8" mat="2" elset="Part16">
			<elem id="641">     1,     2,     5,     4,    49,    50,    53,    52</elem>
			<elem id="642">     2,     3,     6,     5,    50,    51,    54,    53</elem>
			<elem id="643">     4,     5,     8,     7,    52,    53,    56,    55</elem>
			<elem id="644">     5,     6,     9,     8,    53,    54,    57,    56</elem>
			<elem id="645">     7,     8,    11,    10,    55,    56,    59,    58</elem>
			<elem id="646">     8,     9,    12,    11,    56,    57,    60,    59</elem>
			<elem id="647">    10,    11,    14,    13,    58,    59,    62,    61</elem>
			<elem id="648">    11,    12,    15,    14,    59,    60,    63,    62</elem>
			<elem id="649">    13,    14,    17,    16,    61,    62,    65,    64</elem>
			<elem id="650">    14,    15,    18,    17,    62,    63,    66,    65</elem>
			<elem id="651">    16,    17,    20,    19,    64,    65,    68,    67</elem>
			<elem id="652">    17,    18,    21,    20,    65,    66,    69,    68</elem>
			<elem id="653">    19,    20,    23,    22,    67,    68,    71,    70</elem>
			<elem id="654">    20,    21,    24,    23,    68,    69,    72,    71</elem>
			<elem id="655">    22,    23,    26,    25,    70,    71,    74,    73</elem>
			<elem id="656">    23,    24,    27,    26,    71,    72,    75,    74</elem>
			<elem id="657">    25,    26,    29,    28,    73,    74,    77,    76</elem>
			<elem id="658">    26,    27,    30,    29,    74,    75,    78,    77</elem>
			<elem id="659">    28,    29,    32,    31,    76,    77,    80,    79</elem>
			<elem id="660">    29,    30,    33,    32,    77,    78,    81,    80</elem>
<!-- ... 620 like lines cut -->
		</Elements>
		<Surface name="MasterSurface01">
			<quad4 id="1">  1023,  1026,  1074,  1071</quad4>
			<quad4 id="2">  1026,  1029,  1077,  1074</quad4>
			<quad4 id="3">  1029,  1032,  1080,  1077</quad4>
			<quad4 id="4">  1032,  1035,  1083,  1080</quad4>
			<quad4 id="5">  1071,  1074,  1122,  1119</quad4>
			<quad4 id="6">  1074,  1077,  1125,  1122</quad4>
			<quad4 id="7">  1077,  1080,  1128,  1125</quad4>
			<quad4 id="8">  1080,  1083,  1131,  1128</quad4>
			<quad4 id="9">  1119,  1122,  1170,  1167</quad4>
			<quad4 id="10">  1122,  1125,  1173,  1170</quad4>
			<quad4 id="11">  1125,  1128,  1176,  1173</quad4>
			<quad4 id="12">  1128,  1131,  1179,  1176</quad4>
			<quad4 id="13">  1167,  1170,  1218,  1215</quad4>
			<quad4 id="14">  1170,  1173,  1221,  1218</quad4>
			<quad4 id="15">  1173,  1176,  1224,  1221</quad4>
			<quad4 id="16">  1176,  1179,  1227,  1224</quad4>
			<quad4 id="17">  1215,  1218,  1266,  1263</quad4>
			<quad4 id="18">  1218,  1221,  1269,  1266</quad4>
			<quad4 id="19">  1221,  1224,  1272,  1269</quad4>
			<quad4 id="20">  1224,  1227,  1275,  1272</quad4>
<!-- ... 140 like lines cut -->
		</Surface>
		<Surface name="SlaveSurface01">
			<quad4 id="1">     3,     6,    54,    51</quad4>
			<quad4 id="2">     6,     9,    57,    54</quad4>
			<quad4 id="3">     9,    12,    60,    57</quad4>
			<quad4 id="4">    12,    15,    63,    60</quad4>
			<quad4 id="5">    51,    54,   102,    99</quad4>
			<quad4 id="6">    54,    57,   105,   102</quad4>
			<quad4 id="7">    57,    60,   108,   105</quad4>
			<quad4 id="8">    60,    63,   111,   108</quad4>
			<quad4 id="9">    99,   102,   150,   147</quad4>
			<quad4 id="10">   102,   105,   153,   150</quad4>
			<quad4 id="11">   105,   108,   156,   153</quad4>
			<quad4 id="12">   108,   111,   159,   156</quad4>
			<quad4 id="13">   147,   150,   198,   195</quad4>
			<quad4 id="14">   150,   153,   201,   198</quad4>
			<quad4 id="15">   153,   156,   204,   201</quad4>
			<quad4 id="16">   156,   159,   207,   204</quad4>
			<quad4 id="17">   195,   198,   246,   243</quad4>
			<quad4 id="18">   198,   201,   249,   246</quad4>
			<quad4 id="19">   201,   204,   252,   249</quad4>
			<quad4 id="20">   204,   207,   255,   252</quad4>
<!-- ... 140 like lines cut -->
		</Surface>
	</Geometry>
	<Boundary>
		<fix bc="z">
			<node id="1"/>
			<node id="2"/>
			<node id="3"/>
			<node id="4"/>
			<node id="5"/>
			<node id="6"/>
			<node id="7"/>
			<node id="8"/>
			<node id="9"/>
			<node id="10"/>
			<node id="11"/>
			<node id="12"/>
			<node id="13"/>
			<node id="14"/>
			<node id="15"/>
			<node id="16"/>
			<node id="17"/>
			<node id="18"/>
			<node id="19"/>
			<node id="20"/>
<!-- ... 76 like lines cut -->
		</fix>
		<fix bc="y">
			<node id="1"/>
			<node id="2"/>
			<node id="3"/>
			<node id="4"/>
			<node id="5"/>
			<node id="6"/>
			<node id="7"/>
			<node id="8"/>
			<node id="9"/>
			<node id="10"/>
			<node id="11"/>
			<node id="12"/>
			<node id="13"/>
			<node id="14"/>
			<node id="15"/>
			<node id="16"/>
			<node id="17"/>
			<node id="18"/>
			<node id="19"/>
			<node id="20"/>
<!-- ... 76 like lines cut -->
		</fix>
		<fix bc="x">
			<node id="1"/>
			<node id="2"/>
			<node id="3"/>
			<node id="4"/>
			<node id="5"/>
			<node id="6"/>
			<node id="7"/>
			<node id="8"/>
			<node id="9"/>
			<node id="10"/>
			<node id="11"/>
			<node id="12"/>
			<node id="13"/>
			<node id="14"/>
			<node id="15"/>
			<node id="16"/>
			<node id="17"/>
			<node id="18"/>
			<node id="19"/>
			<node id="20"/>
<!-- ... 76 like lines cut -->
		</fix>
		<fix bc="z">
			<node id="1009"/>
			<node id="1010"/>
			<node id="1011"/>
			<node id="1012"/>
			<node id="1013"/>
			<node id="1014"/>
			<node id="1015"/>
			<node id="1016"/>
			<node id="1017"/>
			<node id="1018"/>
			<node id="1019"/>
			<node id="1020"/>
			<node id="1021"/>
			<node id="1022"/>
			<node id="1023"/>
			<node id="1024"/>
			<node id="1025"/>
			<node id="1026"/>
			<node id="1027"/>
			<node id="1028"/>
<!-- ... 76 like lines cut -->
		</fix>
		<fix bc="y">
			<node id="1009"/>
			<node id="1010"/>
			<node id="1011"/>
			<node id="1012"/>
			<node id="1013"/>
			<node id="1014"/>
			<node id="1015"/>
			<node id="1016"/>
			<node id="1017"/>
			<node id="1018"/>
			<node id="1019"/>
			<node id="1020"/>
			<node id="1021"/>
			<node id="1022"/>
			<node id="1023"/>
			<node id="1024"/>
			<node id="1025"/>
			<node id="1026"/>
			<node id="1027"/>
			<node id="1028"/>
<!-- ... 76 like lines cut -->
		</fix>
		<fix bc="z">
			<node id="1011"/>
			<node id="1035"/>
			<node id="1059"/>
			<node id="1083"/>
			<node id="1107"/>
			<node id="1131"/>
			<node id="1155"/>
			<node id="1179"/>
			<node id="1203"/>
			<node id="1227"/>
			<node id="1251"/>
			<node id="1275"/>
			<node id="1299"/>
			<node id="1323"/>
			<node id="1347"/>
			<node id="1371"/>
			<node id="1395"/>
			<node id="1419"/>
			<node id="1443"/>
			<node id="1467"/>
<!-- ... 22 like lines cut -->
		</fix>
		<fix bc="y">
			<node id="3"/>
			<node id="27"/>
			<node id="51"/>
			<node id="75"/>
			<node id="99"/>
			<node id="123"/>
			<node id="147"/>
			<node id="171"/>
			<node id="195"/>
			<node id="219"/>
			<node id="243"/>
			<node id="267"/>
			<node id="291"/>
			<node id="315"/>
			<node id="339"/>
			<node id="363"/>
			<node id="387"/>
			<node id="411"/>
			<node id="435"/>
			<node id="459"/>
<!-- ... 22 like lines cut -->
		</fix>
		<prescribe bc="x" lc="1">
			<node id="1009">1</node>
			<node id="1010">1</node>
			<node id="1011">1</node>
			<node id="1012">1</node>
			<node id="1013">1</node>
			<node id="1014">1</node>
			<node id="1015">1</node>
			<node id="1016">1</node>
			<node id="1017">1</node>
			<node id="1018">1</node>
			<node id="1019">1</node>
			<node id="1020">1</node>
			<node id="1021">1</node>
			<node id="1022">1</node>
			<node id="1023">1</node>
			<node id="1024">1</node>
			<node id="1025">1</node>
			<node id="1026">1</node>
			<node id="1027">1</node>
			<node id="1028">1</node>
<!-- ... 76 like lines cut -->
		</prescribe>
	</Boundary>
	<Contact>
		<contact type="sliding-elastic">
			<laugon>0</laugon>
			<tolerance>0.01</tolerance>
			<penalty>1</penalty>
			<two_pass>1</two_pass>
			<auto_penalty>10</auto_penalty>
			<fric_coeff>0.5</fric_coeff>
			<search_tol>0.01</search_tol>
			<minaug>0</minaug>
			<maxaug>10</maxaug>
			<gaptol>0</gaptol>
			<seg_up>0</seg_up>
			<symmetric_stiffness>0</symmetric_stiffness>
			<surface type="master" set="MasterSurface01"/>
			<surface type="slave" set="SlaveSurface01"/>
		</contact>
	</Contact>
	<LoadData>
		<loadcurve id="1" type="smooth">
			<loadpoint>0,0</loadpoint>
			<loadpoint>1,-6</loadpoint>
		</loadcurve>
	</LoadData>
	<Output>
		<plotfile type="febio">
		  <var type="displacement"/>
		  <var type="stress"/>
		  <var type="contact force"/>
		  <var type="contact area"/>
		  <var type="contact stick"/>
		  <var type="contact gap"/>
		  <var type="contact traction"/>
		  <var type="contact pressure"/>
		</plotfile>
		<logfile>
			<element_data data="Ey">624</element_data>
		</logfile>
	</Output>
</febio_spec>
