<?xml version="1.0" encoding="ISO-8859-1"?>
<!-- 
Problem Description:
Interstitial growth of engineered cartilage using chemical reactions that convert soluble sulfate ion
into solid-bound charged chondroitin sulfate (CS), based on the availability of glucose which is needed
for CS synthesis as well as cell metabolism. The tissue construct consists of a scaffold (modeled as a
solid porous matrix), cells (not modeled explicitly), the CS solid-bound molecule, and an interstitial
fluid containing Na+, Cl-, Mg++ and SO4-.  Two chemical reactions occur in this analysis:

Glucose Consumption:
[cells] + [glucose] -> [cells] + [waste products]

Chondroitin sulfate synthesis:
[cells] + [glucose] + [sulfate] -> [cells] + [chondroitin sulfate]

Cells and waste products are not modeled explicitly.  The [glucose] is modeled as a solute named "Glc",
the [sulfate] is modeled as a soluted named "SO4", and the [chondroitin sulfate] is modeled as a
solid-bound molecule named "CS".  The second chemical reaction explicitly enforces charge conservation
between reactants and products, exchanging two negative charges between SO4 and CS.  The initial CS
concentration is zero.  The analysis domain is a cylindrical disk, modeled as a wedge to take advantage
of axisymmetry.  Fixed glucose, NaCl and MgSO4 concentrations are prescribed on the top and lateral
boundaries, whereas the bottom boundary is impermeable to all solutes and solvent.  Over time, CS is
deposited throughout the disk, increasing its fixed charge density and causing it to swell due to the
resulting Donnan osmotic pressure.  Since CS deposition is dependent on the availability of Glc, and
since Glc concentration is non-uniform due to competitive diffusion-consumption effects, the CS
deposition and construct swelling also become inhomogeneous. 

Main Features:
	Multiphasic material with chemical reactions that alter the fixed-charge density
Secondary Features:
	Charged solid-bound molecules
	Donnan osmotic swelling
	Interstitial growth
Materials:
	Multiphasic
	Neo-Hookean
	Constant Isotropic Permeability
	Constant Osmotic Coefficient
	Constant Isotropic Diffusivity
	Constant Solubility
	Mass-Action-Forward
	Constant Reaction Rate
Degrees of Freedom: 864
Results:
	Steps Completed: 101
	Equilibrium Iterations: 692
	Right Hand Evaluations: 797
	Siffness Reformations: 692
	Other:
		The peak referential fixed charge density is -239 at top radial edge, at time t=3.636e+06.
 
Comments:
	
-->
<febio_spec version="2.0">
	<Module type="multiphasic"/>
	<Control>
		<time_steps>101</time_steps>
		<step_size>36000</step_size>
		<max_refs>25</max_refs>
		<max_ups>0</max_ups>
		<dtol>0.001</dtol>
		<etol>0</etol>
		<rtol>0</rtol>
		<ptol>0</ptol>
		<ctol>0.01</ctol>
		<lstol>0.9</lstol>
		<time_stepper>
			<dtmin>1</dtmin>
			<dtmax>36000</dtmax>
			<max_retries>5</max_retries>
			<opt_iter>25</opt_iter>
		</time_stepper>
		<symmetric_biphasic>0</symmetric_biphasic>
	</Control>
	<Globals>
		<Constants>
			<T>310</T>
			<R>8.314</R>
			<Fc>96.485</Fc>
		</Constants>
		<Solutes>
			<solute id="1" name="Na">
				<charge_number>1</charge_number>
				<molar_mass>2.3e-008</molar_mass>
				<density>0.00097</density>
			</solute>
			<solute id="2" name="Cl">
				<charge_number>-1</charge_number>
				<molar_mass>3.55e-008</molar_mass>
				<density>0.00321</density>
			</solute>
			<solute id="3" name="Mg">
				<charge_number>2</charge_number>
				<molar_mass>2.43e-008</molar_mass>
				<density>0.001738</density>
			</solute>
			<solute id="4" name="SO4">
				<charge_number>-2</charge_number>
				<molar_mass>9.61e-008</molar_mass>
				<density>0.003</density>
			</solute>
			<solute id="5" name="Glc">
				<charge_number>0</charge_number>
				<molar_mass>1.8e-007</molar_mass>
				<density>0.00154</density>
			</solute>
		</Solutes>
		<SolidBoundMolecules>
			<solid_bound id="1" name="CS">
				<charge_number>-2</charge_number>
				<molar_mass>5.18e-007</molar_mass>
				<density>0.001</density>
			</solid_bound>
			<solid_bound id="2" name="col">
				<charge_number>0</charge_number>
				<molar_mass>0.0003</molar_mass>
				<density>0.001</density>
			</solid_bound>
		</SolidBoundMolecules>
	</Globals>
	<Material>
		<material id="1" name="Material2" type="multiphasic">
			<phi0>0.02</phi0>
			<fixed_charge_density>0</fixed_charge_density>
			<solid type="neo-Hookean">
				<density>1</density>
				<E>12000</E>
				<v>0</v>
			</solid>
			<permeability type="perm-const-iso">
				<perm>1e-007</perm>
			</permeability>
			<osmotic_coefficient type="osm-coef-const">
				<osmcoef>1</osmcoef>
			</osmotic_coefficient>
			<solute sol="1">
				<diffusivity type="diff-const-iso">
					<free_diff>0.0006</free_diff>
					<diff>0.0005</diff>
				</diffusivity>
				<solubility type="solub-const">
					<solub>1</solub>
				</solubility>
			</solute>
			<solute sol="2">
				<diffusivity type="diff-const-iso">
					<free_diff>0.0006</free_diff>
					<diff>0.0005</diff>
				</diffusivity>
				<solubility type="solub-const">
					<solub>1</solub>
				</solubility>
			</solute>
			<solute sol="3">
				<diffusivity type="diff-const-iso">
					<free_diff>0.0006</free_diff>
					<diff>0.0005</diff>
				</diffusivity>
				<solubility type="solub-const">
					<solub>1</solub>
				</solubility>
			</solute>
			<solute sol="4">
				<diffusivity type="diff-const-iso">
					<free_diff>0.0006</free_diff>
					<diff>0.0005</diff>
				</diffusivity>
				<solubility type="solub-const">
					<solub>1</solub>
				</solubility>
			</solute>
			<solute sol="5">
				<diffusivity type="diff-const-iso">
					<free_diff>0.0006</free_diff>
					<diff>0.0005</diff>
				</diffusivity>
				<solubility type="solub-const">
					<solub>1</solub>
				</solubility>
			</solute>
			<solid_bound sbm="1">
				<rho0>0</rho0>
				<rhomin>0</rhomin>
				<rhomax>0</rhomax>
			</solid_bound>
			<solid_bound sbm="2">
				<rho0>0</rho0>
				<rhomin>0</rhomin>
				<rhomax>0</rhomax>
			</solid_bound>
			<reaction name="Glucose consumption" type="mass-action-forward">
				<Vbar>0</Vbar>
				<forward_rate type="constant reaction rate">
					<k>4e-005</k>
				</forward_rate>
				<vR sol="5">1</vR>
			</reaction>
			<reaction name="CS synthesis" type="mass-action-forward">
				<Vbar>0</Vbar>
				<forward_rate type="constant reaction rate">
					<k>1e-007</k>
				</forward_rate>
				<vR sol="4">1</vR>
				<vR sol="5">1</vR>
				<vP sbm="1">1</vP>
			</reaction>
		</material>
		<material id="2" name="Symmetry Plane" type="rigid body">
			<density>1</density>
			<center_of_mass>0,0,0</center_of_mass>
		</material>
	</Material>
	<Geometry>
		<Nodes>
			<node id="1">-9.9862953e+000,-5.2335969e-001,-5.0000000e+000</node>
			<node id="2">-9.9862954e+000,-5.2335942e-001, 5.0000000e+000</node>
			<node id="3"> 9.9862954e+000, 5.2335942e-001,-5.0000000e+000</node>
			<node id="4"> 9.9862953e+000, 5.2335969e-001, 5.0000000e+000</node>
			<node id="5"> 0.0000000e+000, 0.0000000e+000, 0.0000000e+000</node>
			<node id="6"> 5.0000000e-001, 0.0000000e+000, 0.0000000e+000</node>
			<node id="7"> 4.9931477e-001, 2.6167978e-002, 0.0000000e+000</node>
			<node id="8"> 1.0000000e+000, 0.0000000e+000, 0.0000000e+000</node>
			<node id="9"> 9.9862953e-001, 5.2335955e-002, 0.0000000e+000</node>
			<node id="10"> 1.5000000e+000, 0.0000000e+000, 0.0000000e+000</node>
			<node id="11"> 1.4979443e+000, 7.8503933e-002, 0.0000000e+000</node>
			<node id="12"> 2.0000000e+000, 0.0000000e+000, 0.0000000e+000</node>
			<node id="13"> 1.9972591e+000, 1.0467191e-001, 0.0000000e+000</node>
			<node id="14"> 2.5000000e+000, 0.0000000e+000, 0.0000000e+000</node>
			<node id="15"> 2.4965738e+000, 1.3083989e-001, 0.0000000e+000</node>
			<node id="16"> 3.0000000e+000, 0.0000000e+000, 0.0000000e+000</node>
			<node id="17"> 2.9958886e+000, 1.5700787e-001, 0.0000000e+000</node>
			<node id="18"> 3.5000000e+000, 0.0000000e+000, 0.0000000e+000</node>
			<node id="19"> 3.4952034e+000, 1.8317584e-001, 0.0000000e+000</node>
			<node id="20"> 4.0000000e+000, 0.0000000e+000, 0.0000000e+000</node>
<!-- ... 89 like lines cut -->
		</Nodes>
		<Elements type="penta6" mat="1" elset="Part1">
			<elem id="1">     5,     6,     7,    26,    27,    28</elem>
			<elem id="2">    26,    27,    28,    47,    48,    49</elem>
			<elem id="3">    47,    48,    49,    68,    69,    70</elem>
			<elem id="4">    68,    69,    70,    89,    90,    91</elem>
		</Elements>
		<Elements type="hex8" mat="1" elset="Part1">
			<elem id="5">     6,     8,     9,     7,    27,    29,    30,    28</elem>
			<elem id="6">     8,    10,    11,     9,    29,    31,    32,    30</elem>
			<elem id="7">    10,    12,    13,    11,    31,    33,    34,    32</elem>
			<elem id="8">    12,    14,    15,    13,    33,    35,    36,    34</elem>
			<elem id="9">    14,    16,    17,    15,    35,    37,    38,    36</elem>
			<elem id="10">    16,    18,    19,    17,    37,    39,    40,    38</elem>
			<elem id="11">    18,    20,    21,    19,    39,    41,    42,    40</elem>
			<elem id="12">    20,    22,    23,    21,    41,    43,    44,    42</elem>
			<elem id="13">    22,    24,    25,    23,    43,    45,    46,    44</elem>
			<elem id="14">    27,    29,    30,    28,    48,    50,    51,    49</elem>
			<elem id="15">    29,    31,    32,    30,    50,    52,    53,    51</elem>
			<elem id="16">    31,    33,    34,    32,    52,    54,    55,    53</elem>
			<elem id="17">    33,    35,    36,    34,    54,    56,    57,    55</elem>
			<elem id="18">    35,    37,    38,    36,    56,    58,    59,    57</elem>
			<elem id="19">    37,    39,    40,    38,    58,    60,    61,    59</elem>
			<elem id="20">    39,    41,    42,    40,    60,    62,    63,    61</elem>
			<elem id="21">    41,    43,    44,    42,    62,    64,    65,    63</elem>
			<elem id="22">    43,    45,    46,    44,    64,    66,    67,    65</elem>
			<elem id="23">    48,    50,    51,    49,    69,    71,    72,    70</elem>
			<elem id="24">    50,    52,    53,    51,    71,    73,    74,    72</elem>
<!-- ... 16 like lines cut -->
		</Elements>
		<Elements type="quad4" mat="2" elset="Part2">
			<elem id="41">     1,     3,     4,     2</elem>
		</Elements>
		<ElementData>
			<element id="41">
				<thickness>0.01,0.01,0.01,0.01</thickness>
			</element>
		</ElementData>
		<NodeSet name="FixedNodeset01">
			<node id="5"/>
			<node id="6"/>
			<node id="8"/>
			<node id="10"/>
			<node id="12"/>
			<node id="14"/>
			<node id="16"/>
			<node id="18"/>
			<node id="20"/>
			<node id="22"/>
			<node id="24"/>
			<node id="26"/>
			<node id="27"/>
			<node id="29"/>
			<node id="31"/>
			<node id="33"/>
			<node id="35"/>
			<node id="37"/>
			<node id="39"/>
			<node id="41"/>
<!-- ... 35 like lines cut -->
		</NodeSet>
		<NodeSet name="FixedNodeset02">
			<node id="5"/>
			<node id="6"/>
			<node id="7"/>
			<node id="8"/>
			<node id="9"/>
			<node id="10"/>
			<node id="11"/>
			<node id="12"/>
			<node id="13"/>
			<node id="14"/>
			<node id="15"/>
			<node id="16"/>
			<node id="17"/>
			<node id="18"/>
			<node id="19"/>
			<node id="20"/>
			<node id="21"/>
			<node id="22"/>
			<node id="23"/>
			<node id="24"/>
			<node id="25"/>
		</NodeSet>
		<NodeSet name="FixedNodeset03">
			<node id="5"/>
			<node id="26"/>
			<node id="47"/>
			<node id="68"/>
			<node id="89"/>
		</NodeSet>
		<NodeSet name="FixedNodeset04">
			<node id="5"/>
			<node id="26"/>
			<node id="47"/>
			<node id="68"/>
			<node id="89"/>
		</NodeSet>
		<NodeSet name="Nodeset01">
			<node id="24"/>
			<node id="25"/>
			<node id="45"/>
			<node id="46"/>
			<node id="66"/>
			<node id="67"/>
			<node id="87"/>
			<node id="88"/>
			<node id="89"/>
			<node id="90"/>
			<node id="91"/>
			<node id="92"/>
			<node id="93"/>
			<node id="94"/>
			<node id="95"/>
			<node id="96"/>
			<node id="97"/>
			<node id="98"/>
			<node id="99"/>
			<node id="100"/>
<!-- ... 9 like lines cut -->
		</NodeSet>
		<NodeSet name="Nodeset02">
			<node id="24"/>
			<node id="25"/>
			<node id="45"/>
			<node id="46"/>
			<node id="66"/>
			<node id="67"/>
			<node id="87"/>
			<node id="88"/>
			<node id="89"/>
			<node id="90"/>
			<node id="91"/>
			<node id="92"/>
			<node id="93"/>
			<node id="94"/>
			<node id="95"/>
			<node id="96"/>
			<node id="97"/>
			<node id="98"/>
			<node id="99"/>
			<node id="100"/>
<!-- ... 9 like lines cut -->
		</NodeSet>
		<NodeSet name="Nodeset03">
			<node id="24"/>
			<node id="25"/>
			<node id="45"/>
			<node id="46"/>
			<node id="66"/>
			<node id="67"/>
			<node id="87"/>
			<node id="88"/>
			<node id="89"/>
			<node id="90"/>
			<node id="91"/>
			<node id="92"/>
			<node id="93"/>
			<node id="94"/>
			<node id="95"/>
			<node id="96"/>
			<node id="97"/>
			<node id="98"/>
			<node id="99"/>
			<node id="100"/>
<!-- ... 9 like lines cut -->
		</NodeSet>
		<NodeSet name="Nodeset04">
			<node id="24"/>
			<node id="25"/>
			<node id="45"/>
			<node id="46"/>
			<node id="66"/>
			<node id="67"/>
			<node id="87"/>
			<node id="88"/>
			<node id="89"/>
			<node id="90"/>
			<node id="91"/>
			<node id="92"/>
			<node id="93"/>
			<node id="94"/>
			<node id="95"/>
			<node id="96"/>
			<node id="97"/>
			<node id="98"/>
			<node id="99"/>
			<node id="100"/>
<!-- ... 9 like lines cut -->
		</NodeSet>
		<NodeSet name="Nodeset05">
			<node id="24"/>
			<node id="25"/>
			<node id="45"/>
			<node id="46"/>
			<node id="66"/>
			<node id="67"/>
			<node id="87"/>
			<node id="88"/>
			<node id="89"/>
			<node id="90"/>
			<node id="91"/>
			<node id="92"/>
			<node id="93"/>
			<node id="94"/>
			<node id="95"/>
			<node id="96"/>
			<node id="97"/>
			<node id="98"/>
			<node id="99"/>
			<node id="100"/>
<!-- ... 9 like lines cut -->
		</NodeSet>
		<NodeSet name="Nodeset06">
			<node id="24"/>
			<node id="25"/>
			<node id="45"/>
			<node id="46"/>
			<node id="66"/>
			<node id="67"/>
			<node id="87"/>
			<node id="88"/>
			<node id="89"/>
			<node id="90"/>
			<node id="91"/>
			<node id="92"/>
			<node id="93"/>
			<node id="94"/>
			<node id="95"/>
			<node id="96"/>
			<node id="97"/>
			<node id="98"/>
			<node id="99"/>
			<node id="100"/>
<!-- ... 9 like lines cut -->
		</NodeSet>
		<Surface name="MasterSurface00">
			<quad4 id="1">     1,     3,     4,     2</quad4>
		</Surface>
		<Surface name="SlaveSurface00">
			<quad4 id="1">     5,    26,    28,     7</quad4>
			<quad4 id="2">     9,     7,    28,    30</quad4>
			<quad4 id="3">    11,     9,    30,    32</quad4>
			<quad4 id="4">    13,    11,    32,    34</quad4>
			<quad4 id="5">    15,    13,    34,    36</quad4>
			<quad4 id="6">    17,    15,    36,    38</quad4>
			<quad4 id="7">    19,    17,    38,    40</quad4>
			<quad4 id="8">    21,    19,    40,    42</quad4>
			<quad4 id="9">    23,    21,    42,    44</quad4>
			<quad4 id="10">    25,    23,    44,    46</quad4>
			<quad4 id="11">    26,    47,    49,    28</quad4>
			<quad4 id="12">    30,    28,    49,    51</quad4>
			<quad4 id="13">    32,    30,    51,    53</quad4>
			<quad4 id="14">    34,    32,    53,    55</quad4>
			<quad4 id="15">    36,    34,    55,    57</quad4>
			<quad4 id="16">    38,    36,    57,    59</quad4>
			<quad4 id="17">    40,    38,    59,    61</quad4>
			<quad4 id="18">    42,    40,    61,    63</quad4>
			<quad4 id="19">    44,    42,    63,    65</quad4>
			<quad4 id="20">    46,    44,    65,    67</quad4>
<!-- ... 20 like lines cut -->
		</Surface>
	</Geometry>
	<Boundary>
		<fix bc="y" set="FixedNodeset01"/>
		<fix bc="z" set="FixedNodeset02"/>
		<fix bc="y" set="FixedNodeset03"/>
		<fix bc="x" set="FixedNodeset04"/>
		<prescribe bc="p" lc="1" set="Nodeset01">1</prescribe>
		<prescribe bc="c1" lc="2" set="Nodeset02">1</prescribe>
		<prescribe bc="c2" lc="3" set="Nodeset03">1</prescribe>
		<prescribe bc="c3" lc="4" set="Nodeset04">1</prescribe>
		<prescribe bc="c4" lc="5" set="Nodeset05">1</prescribe>
		<prescribe bc="c5" lc="6" set="Nodeset06">1</prescribe>
	</Boundary>
	<Contact>
		<contact type="sliding-tension-compression" name="TCInterface01">
			<laugon>0</laugon>
			<tolerance>0.2</tolerance>
			<gaptol>0</gaptol>
			<penalty>10000</penalty>
			<auto_penalty>1</auto_penalty>
			<two_pass>0</two_pass>
			<search_tol>0.01</search_tol>
			<symmetric_stiffness>0</symmetric_stiffness>
			<search_radius>1</search_radius>
			<seg_up>0</seg_up>
			<tension>1</tension>
			<minaug>0</minaug>
			<maxaug>10</maxaug>
			<surface type="master" set="MasterSurface00"/>
			<surface type="slave" set="SlaveSurface00"/>
		</contact>
	</Contact>
	<Constraints>
		<rigid_body mat="2">
			<fixed bc="x"/>
			<fixed bc="y"/>
			<fixed bc="z"/>
			<fixed bc="Rx"/>
			<fixed bc="Ry"/>
			<fixed bc="Rz"/>
		</rigid_body>
	</Constraints>
	<Initial>
		<concentration sol="1">
			<node id="5">145</node>
			<node id="6">145</node>
			<node id="7">145</node>
			<node id="8">145</node>
			<node id="9">145</node>
			<node id="10">145</node>
			<node id="11">145</node>
			<node id="12">145</node>
			<node id="13">145</node>
			<node id="14">145</node>
			<node id="15">145</node>
			<node id="16">145</node>
			<node id="17">145</node>
			<node id="18">145</node>
			<node id="19">145</node>
			<node id="20">145</node>
			<node id="21">145</node>
			<node id="22">145</node>
			<node id="23">145</node>
			<node id="24">145</node>
<!-- ... 85 like lines cut -->
		</concentration>
		<concentration sol="2">
			<node id="5">145</node>
			<node id="6">145</node>
			<node id="7">145</node>
			<node id="8">145</node>
			<node id="9">145</node>
			<node id="10">145</node>
			<node id="11">145</node>
			<node id="12">145</node>
			<node id="13">145</node>
			<node id="14">145</node>
			<node id="15">145</node>
			<node id="16">145</node>
			<node id="17">145</node>
			<node id="18">145</node>
			<node id="19">145</node>
			<node id="20">145</node>
			<node id="21">145</node>
			<node id="22">145</node>
			<node id="23">145</node>
			<node id="24">145</node>
<!-- ... 85 like lines cut -->
		</concentration>
		<concentration sol="3">
			<node id="5">5</node>
			<node id="6">5</node>
			<node id="7">5</node>
			<node id="8">5</node>
			<node id="9">5</node>
			<node id="10">5</node>
			<node id="11">5</node>
			<node id="12">5</node>
			<node id="13">5</node>
			<node id="14">5</node>
			<node id="15">5</node>
			<node id="16">5</node>
			<node id="17">5</node>
			<node id="18">5</node>
			<node id="19">5</node>
			<node id="20">5</node>
			<node id="21">5</node>
			<node id="22">5</node>
			<node id="23">5</node>
			<node id="24">5</node>
<!-- ... 85 like lines cut -->
		</concentration>
		<concentration sol="4">
			<node id="5">5</node>
			<node id="6">5</node>
			<node id="7">5</node>
			<node id="8">5</node>
			<node id="9">5</node>
			<node id="10">5</node>
			<node id="11">5</node>
			<node id="12">5</node>
			<node id="13">5</node>
			<node id="14">5</node>
			<node id="15">5</node>
			<node id="16">5</node>
			<node id="17">5</node>
			<node id="18">5</node>
			<node id="19">5</node>
			<node id="20">5</node>
			<node id="21">5</node>
			<node id="22">5</node>
			<node id="23">5</node>
			<node id="24">5</node>
<!-- ... 85 like lines cut -->
		</concentration>
		<concentration sol="5">
			<node id="5">25</node>
			<node id="6">25</node>
			<node id="7">25</node>
			<node id="8">25</node>
			<node id="9">25</node>
			<node id="10">25</node>
			<node id="11">25</node>
			<node id="12">25</node>
			<node id="13">25</node>
			<node id="14">25</node>
			<node id="15">25</node>
			<node id="16">25</node>
			<node id="17">25</node>
			<node id="18">25</node>
			<node id="19">25</node>
			<node id="20">25</node>
			<node id="21">25</node>
			<node id="22">25</node>
			<node id="23">25</node>
			<node id="24">25</node>
<!-- ... 85 like lines cut -->
		</concentration>
		<fluid_pressure>
			<node id="5">-837636</node>
			<node id="6">-837636</node>
			<node id="7">-837636</node>
			<node id="8">-837636</node>
			<node id="9">-837636</node>
			<node id="10">-837636</node>
			<node id="11">-837636</node>
			<node id="12">-837636</node>
			<node id="13">-837636</node>
			<node id="14">-837636</node>
			<node id="15">-837636</node>
			<node id="16">-837636</node>
			<node id="17">-837636</node>
			<node id="18">-837636</node>
			<node id="19">-837636</node>
			<node id="20">-837636</node>
			<node id="21">-837636</node>
			<node id="22">-837636</node>
			<node id="23">-837636</node>
			<node id="24">-837636</node>
<!-- ... 85 like lines cut -->
		</fluid_pressure>
	</Initial>
	<LoadData>
		<loadcurve id="1" type="step">
			<point>0,0</point>
			<point>1,-837636</point>
		</loadcurve>
		<loadcurve id="2" type="step">
			<point>0,0</point>
			<point>1,145</point>
		</loadcurve>
		<loadcurve id="3" type="step">
			<point>0,0</point>
			<point>1,145</point>
		</loadcurve>
		<loadcurve id="4" type="step">
			<point>0,0</point>
			<point>1,5</point>
		</loadcurve>
		<loadcurve id="5" type="step">
			<point>0,0</point>
			<point>1,5</point>
		</loadcurve>
		<loadcurve id="6" type="step">
			<point>0,0</point>
			<point>1,25</point>
		</loadcurve>
	</LoadData>
	<Output>
		<plotfile type="febio">
			<var type="contact force"/>
			<var type="contact gap"/>
			<var type="contact pressure"/>
			<var type="current density"/>
			<var type="displacement"/>
			<var type="effective fluid pressure"/>
			<var type="effective solute 1 concentration"/>
			<var type="effective solute 2 concentration"/>
			<var type="effective solute 3 concentration"/>
			<var type="effective solute 4 concentration"/>
			<var type="effective solute 5 concentration"/>
			<var type="electric potential"/>
			<var type="fixed charge density"/>
			<var type="fluid flux"/>
			<var type="fluid pressure"/>
			<var type="reaction forces"/>
			<var type="referential fixed charge density"/>
			<var type="referential solid volume fraction"/>
			<var type="relative volume"/>
			<var type="sbm 1 referential apparent density"/>
			<var type="sbm 2 referential apparent density"/>
			<var type="sbm 1 concentration"/>
			<var type="sbm 2 concentration"/>
			<var type="solute 1 concentration"/>
			<var type="solute 2 concentration"/>
			<var type="solute 3 concentration"/>
			<var type="solute 4 concentration"/>
			<var type="solute 5 concentration"/>
			<var type="solute 1 flux"/>
			<var type="solute 2 flux"/>
			<var type="solute 3 flux"/>
			<var type="solute 4 flux"/>
			<var type="solute 5 flux"/>
			<var type="stress"/>
			<var type="velocity"/>
		</plotfile>
		<logfile>
			<element_data data="c1">40</element_data>
		</logfile>
	</Output>
</febio_spec>
