<?xml version="1.0" encoding="ISO-8859-1"?>
<!-- 
Problem Description:
One-dimensional analysis of interstitial growth where the net reaction molar volume is not zero.  This analysis models the chemical reaction

[nutrient] -> [solid]

where the molar volume of the solid is different from that of the nutrient.  The [nutrient] is not modeled explicitly, whereas the [solid] product is modeled as a solid-bound molecule.The 1D analysis is performed on a cube of height h=1.  The multiphasic material consists of a solid and a fluid phase (no explicit solutes).  The top surface of the cube is traction-free and free-draining.  Continuou

Main Features:
	Multiphasic material with chemical reaction where Vbar is not equal to zero
Secondary Features:
Materials:
	Multiphasic
	Neo-Hookean
	Constant Isotropic Permeability
	Constant Osmotic Coefficient
	Mass-Action-Forward
	Constant Reaction Rate
Degrees of Freedom: 240
Results:
	Steps Completed: 305
	Equilibrium Iterations: 305
	Right Hand Evaluations: 610
	Siffness Reformations: 305
	Other:
		The steady-state surface displacement is 3.32e-4 at time t=3.
 
Comments:
	
-->
<febio_spec version="2.0">
	<Module type="multiphasic"/>
	<Control>
		<time_steps>3000</time_steps>
		<step_size>0.001</step_size>
		<max_refs>15</max_refs>
		<max_ups>0</max_ups>
		<dtol>0.001</dtol>
		<etol>0.01</etol>
		<rtol>0</rtol>
		<ptol>0.01</ptol>
		<ctol>0.01</ctol>
		<lstol>0.9</lstol>
		<time_stepper>
			<dtmin>0.0001</dtmin>
			<dtmax>0.01</dtmax>
			<max_retries>5</max_retries>
			<opt_iter>10</opt_iter>
		</time_stepper>
		<symmetric_biphasic>0</symmetric_biphasic>
	</Control>
	<Globals>
		<Constants>
			<T>293</T>
			<R>8.314e-06</R>
			<Fc>9.65e-05</Fc>
		</Constants>
		<Solutes>
			<solute id="1" name="nutrient">
				<charge_number>0</charge_number>
			</solute>
		</Solutes>
		<SolidBoundMolecules>
			<solid_bound id="1" name="solid">
				<charge_number>0</charge_number>
				<density>1</density>
				<molar_mass>1</molar_mass>
			</solid_bound>
		</SolidBoundMolecules>
	</Globals>
	<Material>
		<material id="1" name="Tissue" type="multiphasic">
			<phi0>0</phi0>
			<fixed_charge_density>0</fixed_charge_density>
			<solid_bound sbm="1">
				<rho0>0</rho0>
			</solid_bound>
			<solid type="neo-Hookean">
				<density>1</density>
				<E>1</E>
				<v>0</v>
			</solid>
			<permeability type="perm-const-iso">
				<perm>1</perm>
			</permeability>
			<osmotic_coefficient type="osm-coef-const">
				<osmcoef>1</osmcoef>
			</osmotic_coefficient>
			<reaction name="volumetric growth" type="mass-action-forward">
			  <Vbar>1</Vbar>
			  <vP sbm="1">1</vP>
			  <forward_rate type="constant reaction rate">
			    <k>1e-3</k>
			  </forward_rate>
			</reaction>
		</material>
	</Material>
	<Geometry>
		<Nodes>
			<node id="1"> -5.0000000e-01, -5.0000000e-01,  0.0000000e+00</node>
			<node id="2"> -5.0000000e-01, -5.0000000e-01,  1.2264939e-01</node>
			<node id="3"> -5.0000000e-01, -5.0000000e-01,  2.3058085e-01</node>
			<node id="4"> -5.0000000e-01, -5.0000000e-01,  3.2556054e-01</node>
			<node id="5"> -5.0000000e-01, -5.0000000e-01,  4.0914266e-01</node>
			<node id="6"> -5.0000000e-01, -5.0000000e-01,  4.8269493e-01</node>
			<node id="7"> -5.0000000e-01, -5.0000000e-01,  5.4742092e-01</node>
			<node id="8"> -5.0000000e-01, -5.0000000e-01,  6.0437980e-01</node>
			<node id="9"> -5.0000000e-01, -5.0000000e-01,  6.5450361e-01</node>
			<node id="10"> -5.0000000e-01, -5.0000000e-01,  6.9861257e-01</node>
			<node id="11"> -5.0000000e-01, -5.0000000e-01,  7.3742845e-01</node>
			<node id="12"> -5.0000000e-01, -5.0000000e-01,  7.7158642e-01</node>
			<node id="13"> -5.0000000e-01, -5.0000000e-01,  8.0164544e-01</node>
			<node id="14"> -5.0000000e-01, -5.0000000e-01,  8.2809737e-01</node>
			<node id="15"> -5.0000000e-01, -5.0000000e-01,  8.5137508e-01</node>
			<node id="16"> -5.0000000e-01, -5.0000000e-01,  8.7185946e-01</node>
			<node id="17"> -5.0000000e-01, -5.0000000e-01,  8.8988571e-01</node>
			<node id="18"> -5.0000000e-01, -5.0000000e-01,  9.0574881e-01</node>
			<node id="19"> -5.0000000e-01, -5.0000000e-01,  9.1970834e-01</node>
			<node id="20"> -5.0000000e-01, -5.0000000e-01,  9.3199273e-01</node>
<!-- ... 104 like lines cut -->
		</Nodes>
		<Elements type="hex8" mat="1">
			<elem id="1">     1,    63,    94,    32,     2,    64,    95,    33</elem>
			<elem id="2">     2,    64,    95,    33,     3,    65,    96,    34</elem>
			<elem id="3">     3,    65,    96,    34,     4,    66,    97,    35</elem>
			<elem id="4">     4,    66,    97,    35,     5,    67,    98,    36</elem>
			<elem id="5">     5,    67,    98,    36,     6,    68,    99,    37</elem>
			<elem id="6">     6,    68,    99,    37,     7,    69,   100,    38</elem>
			<elem id="7">     7,    69,   100,    38,     8,    70,   101,    39</elem>
			<elem id="8">     8,    70,   101,    39,     9,    71,   102,    40</elem>
			<elem id="9">     9,    71,   102,    40,    10,    72,   103,    41</elem>
			<elem id="10">    10,    72,   103,    41,    11,    73,   104,    42</elem>
			<elem id="11">    11,    73,   104,    42,    12,    74,   105,    43</elem>
			<elem id="12">    12,    74,   105,    43,    13,    75,   106,    44</elem>
			<elem id="13">    13,    75,   106,    44,    14,    76,   107,    45</elem>
			<elem id="14">    14,    76,   107,    45,    15,    77,   108,    46</elem>
			<elem id="15">    15,    77,   108,    46,    16,    78,   109,    47</elem>
			<elem id="16">    16,    78,   109,    47,    17,    79,   110,    48</elem>
			<elem id="17">    17,    79,   110,    48,    18,    80,   111,    49</elem>
			<elem id="18">    18,    80,   111,    49,    19,    81,   112,    50</elem>
			<elem id="19">    19,    81,   112,    50,    20,    82,   113,    51</elem>
			<elem id="20">    20,    82,   113,    51,    21,    83,   114,    52</elem>
<!-- ... 10 like lines cut -->
		</Elements>
	</Geometry>
	<Boundary>
		<fix bc="x">
			<node id="1"/>
			<node id="2"/>
			<node id="3"/>
			<node id="4"/>
			<node id="5"/>
			<node id="6"/>
			<node id="7"/>
			<node id="8"/>
			<node id="9"/>
			<node id="10"/>
			<node id="11"/>
			<node id="12"/>
			<node id="13"/>
			<node id="14"/>
			<node id="15"/>
			<node id="16"/>
			<node id="17"/>
			<node id="18"/>
			<node id="19"/>
			<node id="20"/>
<!-- ... 104 like lines cut -->
		</fix>
		<fix bc="y">
			<node id="1"/>
			<node id="2"/>
			<node id="3"/>
			<node id="4"/>
			<node id="5"/>
			<node id="6"/>
			<node id="7"/>
			<node id="8"/>
			<node id="9"/>
			<node id="10"/>
			<node id="11"/>
			<node id="12"/>
			<node id="13"/>
			<node id="14"/>
			<node id="15"/>
			<node id="16"/>
			<node id="17"/>
			<node id="18"/>
			<node id="19"/>
			<node id="20"/>
<!-- ... 104 like lines cut -->
		</fix>
		<fix bc="z">
			<node id="1"/>
			<node id="32"/>
			<node id="63"/>
			<node id="94"/>
		</fix>
		<fix bc="p">
			<node id="31"/>
			<node id="62"/>
			<node id="93"/>
			<node id="124"/>
		</fix>
	</Boundary>
	<Output>
		<plotfile type="febio">
			<var type="displacement"/>
			<var type="effective fluid pressure"/>
			<var type="fluid flux"/>
			<var type="fluid pressure"/>
			<var type="relative volume"/>
			<var type="stress"/>
			<var type="velocity"/>
			<var type="density"/>
			<var type="sbm 1 concentration"/>
			<var type="referential solid volume fraction"/>
		</plotfile>
		<logfile>
			<element_data data="wz">7</element_data>
		</logfile>
	</Output>
</febio_spec>
