<?xml version="1.0" encoding="ISO-8859-1"?>
<!--
Problem Description:
	Two cantilever boards are connected by nodal springs on their free ends and a vertical force
	 curve of 0 units at t=0 and 100 units at t=1 is applied to the right board.
Main Features:
	Nodal springs
Secondary Features:
	
Materials:
	Neo-Hookean
Degrees of Freedom: 540
Results:
	Steps Completed: 50
	Equilibrium Iterations: 223
	Right Hand Evaluations: 383
	Siffness Reformations: 51
	Other:
		At time t=1, the maximum total displacement is 4.53.
Comments:
	
-->
<febio_spec version="2.0">
	<Module type="solid"/>
	<Control>
		<title>Cantilevers with Nodal Springs</title>
		<time_steps>50</time_steps>
		<step_size>0.02</step_size>
		<max_refs>15</max_refs>
		<max_ups>10</max_ups>
		<dtol>0.001</dtol>
		<etol>0.01</etol>
		<rtol>0</rtol>
		<lstol>0.9</lstol>
		<analysis type="static"/>
	</Control>
	<Globals>
		<Constants>
			<T>0</T>
			<R>0</R>
			<Fc>0</Fc>
		</Constants>
	</Globals>
	<Material>
		<material id="1" name="Material 2" type="neo-Hookean">
			<density>1</density>
			<E>10000</E>
			<v>0.3</v>
		</material>
	</Material>
	<Geometry>
		<Nodes>
			<node id="1">-2.5000000e+000,-5.0000000e-001, 0.0000000e+000</node>
			<node id="2">-2.5000000e+000,-5.0000000e-001, 1.0000000e-001</node>
			<node id="3">-2.5000000e+000,-5.0000000e-001, 2.0000000e-001</node>
			<node id="4">-2.5000000e+000, 0.0000000e+000, 0.0000000e+000</node>
			<node id="5">-2.5000000e+000, 0.0000000e+000, 1.0000000e-001</node>
			<node id="6">-2.5000000e+000, 0.0000000e+000, 2.0000000e-001</node>
			<node id="7">-2.5000000e+000, 5.0000000e-001, 0.0000000e+000</node>
			<node id="8">-2.5000000e+000, 5.0000000e-001, 1.0000000e-001</node>
			<node id="9">-2.5000000e+000, 5.0000000e-001, 2.0000000e-001</node>
			<node id="10">-2.0000000e+000,-5.0000000e-001, 0.0000000e+000</node>
			<node id="11">-2.0000000e+000,-5.0000000e-001, 1.0000000e-001</node>
			<node id="12">-2.0000000e+000,-5.0000000e-001, 2.0000000e-001</node>
			<node id="13">-2.0000000e+000, 0.0000000e+000, 0.0000000e+000</node>
			<node id="14">-2.0000000e+000, 0.0000000e+000, 1.0000000e-001</node>
			<node id="15">-2.0000000e+000, 0.0000000e+000, 2.0000000e-001</node>
			<node id="16">-2.0000000e+000, 5.0000000e-001, 0.0000000e+000</node>
			<node id="17">-2.0000000e+000, 5.0000000e-001, 1.0000000e-001</node>
			<node id="18">-2.0000000e+000, 5.0000000e-001, 2.0000000e-001</node>
			<node id="19">-1.5000000e+000,-5.0000000e-001, 0.0000000e+000</node>
			<node id="20">-1.5000000e+000,-5.0000000e-001, 1.0000000e-001</node>
<!-- ... 178 like lines cut -->
		</Nodes>
		<Elements type="hex8" mat="1" elset="Part2">
			<elem id="1">     1,    10,    13,     4,     2,    11,    14,     5</elem>
			<elem id="2">     2,    11,    14,     5,     3,    12,    15,     6</elem>
			<elem id="3">     4,    13,    16,     7,     5,    14,    17,     8</elem>
			<elem id="4">     5,    14,    17,     8,     6,    15,    18,     9</elem>
			<elem id="5">    10,    19,    22,    13,    11,    20,    23,    14</elem>
			<elem id="6">    11,    20,    23,    14,    12,    21,    24,    15</elem>
			<elem id="7">    13,    22,    25,    16,    14,    23,    26,    17</elem>
			<elem id="8">    14,    23,    26,    17,    15,    24,    27,    18</elem>
			<elem id="9">    19,    28,    31,    22,    20,    29,    32,    23</elem>
			<elem id="10">    20,    29,    32,    23,    21,    30,    33,    24</elem>
			<elem id="11">    22,    31,    34,    25,    23,    32,    35,    26</elem>
			<elem id="12">    23,    32,    35,    26,    24,    33,    36,    27</elem>
			<elem id="13">    28,    37,    40,    31,    29,    38,    41,    32</elem>
			<elem id="14">    29,    38,    41,    32,    30,    39,    42,    33</elem>
			<elem id="15">    31,    40,    43,    34,    32,    41,    44,    35</elem>
			<elem id="16">    32,    41,    44,    35,    33,    42,    45,    36</elem>
			<elem id="17">    37,    46,    49,    40,    38,    47,    50,    41</elem>
			<elem id="18">    38,    47,    50,    41,    39,    48,    51,    42</elem>
			<elem id="19">    40,    49,    52,    43,    41,    50,    53,    44</elem>
			<elem id="20">    41,    50,    53,    44,    42,    51,    54,    45</elem>
<!-- ... 60 like lines cut -->
		</Elements>
	</Geometry>
	<Boundary>
		<fix bc="z">
			<node id="1"/>
			<node id="2"/>
			<node id="3"/>
			<node id="4"/>
			<node id="5"/>
			<node id="6"/>
			<node id="7"/>
			<node id="8"/>
			<node id="9"/>
			<node id="190"/>
			<node id="191"/>
			<node id="192"/>
			<node id="193"/>
			<node id="194"/>
			<node id="195"/>
			<node id="196"/>
			<node id="197"/>
			<node id="198"/>
		</fix>
		<fix bc="y">
			<node id="1"/>
			<node id="2"/>
			<node id="3"/>
			<node id="4"/>
			<node id="5"/>
			<node id="6"/>
			<node id="7"/>
			<node id="8"/>
			<node id="9"/>
			<node id="190"/>
			<node id="191"/>
			<node id="192"/>
			<node id="193"/>
			<node id="194"/>
			<node id="195"/>
			<node id="196"/>
			<node id="197"/>
			<node id="198"/>
		</fix>
		<fix bc="x">
			<node id="1"/>
			<node id="2"/>
			<node id="3"/>
			<node id="4"/>
			<node id="5"/>
			<node id="6"/>
			<node id="7"/>
			<node id="8"/>
			<node id="9"/>
			<node id="190"/>
			<node id="191"/>
			<node id="192"/>
			<node id="193"/>
			<node id="194"/>
			<node id="195"/>
			<node id="196"/>
			<node id="197"/>
			<node id="198"/>
		</fix>
	</Boundary>
	<Loads>
		<nodal_load bc="z" lc="1">
			<node id="102">1</node>
			<node id="105">1</node>
			<node id="108">1</node>
		</nodal_load>
	</Loads>
	<Discrete>
		<spring>
			<node>100,93</node>
			<E>50</E>
		</spring>
		<spring>
			<node>106,99</node>
			<E>50</E>
		</spring>
	</Discrete>
	<LoadData>
		<loadcurve id="1" type="linear">
			<loadpoint>0,0</loadpoint>
			<loadpoint>1,100</loadpoint>
		</loadcurve>
	</LoadData>
	<Output>
		<plotfile type="febio"></plotfile>
		<logfile>
			<element_data data="sy">1</element_data>
		</logfile>
	</Output>
</febio_spec>
