<?xml version="1.0" encoding="ISO-8859-1"?>
<!--
Problem Description:
	Two concentric planar rings are connected by nonlinear springs.  The outer ring is
	constrained on it's outer edge and the inner edge of the inner ring has a displacement
	of 0.8 units in the z-direction at time t = 1.
Main Features:
	Nonlinear springs
Secondary Features:
	
Materials:
	Neo-Hookean
Degrees of Freedom: 1600
Results:
	Steps Completed: 10
	Equilibrium Iterations: 129
	Right Hand Evaluations: 198
	Siffness Reformations: 18
	Other:
		At time t=1, the maximum effective strain is 1.24.
Comments:
	
-->
<febio_spec version="2.0">
	<Module type="solid"/>
	<Control>
		<title>Nonlinear Springs</title>
		<time_steps>10</time_steps>
		<step_size>0.1</step_size>
		<max_refs>15</max_refs>
		<max_ups>10</max_ups>
		<dtol>0.001</dtol>
		<etol>0.01</etol>
		<rtol>0</rtol>
		<lstol>0.9</lstol>
		<analysis type="static"/>
	</Control>
	<Globals>
		<Constants>
			<T>0</T>
			<R>0</R>
			<Fc>0</Fc>
		</Constants>
	</Globals>
	<Material>
		<material id="1" name="Material 1" type="neo-Hookean">
			<density>1</density>
			<E>100</E>
			<v>0.45</v>
		</material>
	</Material>
	<Geometry>
		<Nodes>
			<node id="1"> 8.0000000e-001, 0.0000000e+000, 0.0000000e+000</node>
			<node id="2"> 8.5000000e-001, 0.0000000e+000, 0.0000000e+000</node>
			<node id="3"> 9.0000000e-001, 0.0000000e+000, 0.0000000e+000</node>
			<node id="4"> 9.5000000e-001, 0.0000000e+000, 0.0000000e+000</node>
			<node id="5"> 1.0000000e+000, 0.0000000e+000, 0.0000000e+000</node>
			<node id="6"> 7.8462822e-001, 1.5607225e-001, 0.0000000e+000</node>
			<node id="7"> 8.3366749e-001, 1.6582677e-001, 0.0000000e+000</node>
			<node id="8"> 8.8270675e-001, 1.7558129e-001, 0.0000000e+000</node>
			<node id="9"> 9.3174602e-001, 1.8533580e-001, 0.0000000e+000</node>
			<node id="10"> 9.8078528e-001, 1.9509032e-001, 0.0000000e+000</node>
			<node id="11"> 7.3910363e-001, 3.0614674e-001, 0.0000000e+000</node>
			<node id="12"> 7.8529760e-001, 3.2528091e-001, 0.0000000e+000</node>
			<node id="13"> 8.3149158e-001, 3.4441508e-001, 0.0000000e+000</node>
			<node id="14"> 8.7768556e-001, 3.6354925e-001, 0.0000000e+000</node>
			<node id="15"> 9.2387954e-001, 3.8268343e-001, 0.0000000e+000</node>
			<node id="16"> 6.6517569e-001, 4.4445618e-001, 0.0000000e+000</node>
			<node id="17"> 7.0674918e-001, 4.7223469e-001, 0.0000000e+000</node>
			<node id="18"> 7.4832266e-001, 5.0001320e-001, 0.0000000e+000</node>
			<node id="19"> 7.8989614e-001, 5.2779171e-001, 0.0000000e+000</node>
			<node id="20"> 8.3146962e-001, 5.5557022e-001, 0.0000000e+000</node>
<!-- ... 620 like lines cut -->
		</Nodes>
		<Elements type="hex8" mat="1" elset="Part3">
			<elem id="1">     1,     2,     7,     6,   161,   162,   167,   166</elem>
			<elem id="2">     2,     3,     8,     7,   162,   163,   168,   167</elem>
			<elem id="3">     3,     4,     9,     8,   163,   164,   169,   168</elem>
			<elem id="4">     4,     5,    10,     9,   164,   165,   170,   169</elem>
			<elem id="5">     6,     7,    12,    11,   166,   167,   172,   171</elem>
			<elem id="6">     7,     8,    13,    12,   167,   168,   173,   172</elem>
			<elem id="7">     8,     9,    14,    13,   168,   169,   174,   173</elem>
			<elem id="8">     9,    10,    15,    14,   169,   170,   175,   174</elem>
			<elem id="9">    11,    12,    17,    16,   171,   172,   177,   176</elem>
			<elem id="10">    12,    13,    18,    17,   172,   173,   178,   177</elem>
			<elem id="11">    13,    14,    19,    18,   173,   174,   179,   178</elem>
			<elem id="12">    14,    15,    20,    19,   174,   175,   180,   179</elem>
			<elem id="13">    16,    17,    22,    21,   176,   177,   182,   181</elem>
			<elem id="14">    17,    18,    23,    22,   177,   178,   183,   182</elem>
			<elem id="15">    18,    19,    24,    23,   178,   179,   184,   183</elem>
			<elem id="16">    19,    20,    25,    24,   179,   180,   185,   184</elem>
			<elem id="17">    21,    22,    27,    26,   181,   182,   187,   186</elem>
			<elem id="18">    22,    23,    28,    27,   182,   183,   188,   187</elem>
			<elem id="19">    23,    24,    29,    28,   183,   184,   189,   188</elem>
			<elem id="20">    24,    25,    30,    29,   184,   185,   190,   189</elem>
<!-- ... 236 like lines cut -->
		</Elements>
	</Geometry>
	<Boundary>
		<fix bc="z">
			<node id="5"/>
			<node id="10"/>
			<node id="15"/>
			<node id="20"/>
			<node id="25"/>
			<node id="30"/>
			<node id="35"/>
			<node id="40"/>
			<node id="45"/>
			<node id="50"/>
			<node id="55"/>
			<node id="60"/>
			<node id="65"/>
			<node id="70"/>
			<node id="75"/>
			<node id="80"/>
			<node id="85"/>
			<node id="90"/>
			<node id="95"/>
			<node id="100"/>
<!-- ... 44 like lines cut -->
		</fix>
		<fix bc="y">
			<node id="5"/>
			<node id="10"/>
			<node id="15"/>
			<node id="20"/>
			<node id="25"/>
			<node id="30"/>
			<node id="35"/>
			<node id="40"/>
			<node id="45"/>
			<node id="50"/>
			<node id="55"/>
			<node id="60"/>
			<node id="65"/>
			<node id="70"/>
			<node id="75"/>
			<node id="80"/>
			<node id="85"/>
			<node id="90"/>
			<node id="95"/>
			<node id="100"/>
<!-- ... 44 like lines cut -->
		</fix>
		<fix bc="x">
			<node id="5"/>
			<node id="10"/>
			<node id="15"/>
			<node id="20"/>
			<node id="25"/>
			<node id="30"/>
			<node id="35"/>
			<node id="40"/>
			<node id="45"/>
			<node id="50"/>
			<node id="55"/>
			<node id="60"/>
			<node id="65"/>
			<node id="70"/>
			<node id="75"/>
			<node id="80"/>
			<node id="85"/>
			<node id="90"/>
			<node id="95"/>
			<node id="100"/>
<!-- ... 44 like lines cut -->
		</fix>
		<fix bc="y">
			<node id="321"/>
			<node id="326"/>
			<node id="331"/>
			<node id="336"/>
			<node id="341"/>
			<node id="346"/>
			<node id="351"/>
			<node id="356"/>
			<node id="361"/>
			<node id="366"/>
			<node id="371"/>
			<node id="376"/>
			<node id="381"/>
			<node id="386"/>
			<node id="391"/>
			<node id="396"/>
			<node id="401"/>
			<node id="406"/>
			<node id="411"/>
			<node id="416"/>
<!-- ... 44 like lines cut -->
		</fix>
		<fix bc="x">
			<node id="321"/>
			<node id="326"/>
			<node id="331"/>
			<node id="336"/>
			<node id="341"/>
			<node id="346"/>
			<node id="351"/>
			<node id="356"/>
			<node id="361"/>
			<node id="366"/>
			<node id="371"/>
			<node id="376"/>
			<node id="381"/>
			<node id="386"/>
			<node id="391"/>
			<node id="396"/>
			<node id="401"/>
			<node id="406"/>
			<node id="411"/>
			<node id="416"/>
<!-- ... 44 like lines cut -->
		</fix>
		<prescribe bc="z" lc="1">
			<node id="321">1</node>
			<node id="326">1</node>
			<node id="331">1</node>
			<node id="336">1</node>
			<node id="341">1</node>
			<node id="346">1</node>
			<node id="351">1</node>
			<node id="356">1</node>
			<node id="361">1</node>
			<node id="366">1</node>
			<node id="371">1</node>
			<node id="376">1</node>
			<node id="381">1</node>
			<node id="386">1</node>
			<node id="391">1</node>
			<node id="396">1</node>
			<node id="401">1</node>
			<node id="406">1</node>
			<node id="411">1</node>
			<node id="416">1</node>
<!-- ... 44 like lines cut -->
		</prescribe>
	</Boundary>
	<Discrete>
		<spring type="nonlinear">
			<node>81,405</node>
			<force lc="2">1</force>
		</spring>
		<spring type="nonlinear">
			<node>445,121</node>
			<force lc="3">2</force>
		</spring>
		<spring type="nonlinear">
			<node>325,1</node>
			<force lc="4">1</force>
		</spring>
		<spring type="nonlinear">
			<node>365,41</node>
			<force lc="5">2</force>
		</spring>
	</Discrete>
	<LoadData>
		<loadcurve id="1" type="smooth">
			<loadpoint>0,0</loadpoint>
			<loadpoint>1,0.8</loadpoint>
		</loadcurve>
		<loadcurve id="2" type="smooth">
			<loadpoint>-1,-1</loadpoint>
			<loadpoint>0,0</loadpoint>
			<loadpoint>1,2</loadpoint>
		</loadcurve>
		<loadcurve id="3" type="smooth">
			<loadpoint>-1,-1</loadpoint>
			<loadpoint>0,0</loadpoint>
			<loadpoint>1,2</loadpoint>
		</loadcurve>
		<loadcurve id="4" type="smooth">
			<loadpoint>-1,-1</loadpoint>
			<loadpoint>0,0</loadpoint>
			<loadpoint>1,2</loadpoint>
		</loadcurve>
		<loadcurve id="5" type="smooth">
			<loadpoint>-1,-1</loadpoint>
			<loadpoint>0,0</loadpoint>
			<loadpoint>1,2</loadpoint>
		</loadcurve>
	</LoadData>
	<Output>
		<plotfile type="febio"></plotfile>
		<logfile>
			<element_data data="sz">228</element_data>
		</logfile>
	</Output>
</febio_spec>
