<?xml version="1.0" encoding="ISO-8859-1"?>
<!--
Problem Description:
	A ball has a constant body force of 1 unit in the z-direction and bounces off of a rigid
	horizontal wall   Note the the rigid body horizontal wall is only there to visualize the
	rigid-wall contact.
Main Features:
	Dynamic analysis
	Body force
	Rigid wall contact
Secondary Features:
	
Materials:
	Neo-Hookean
	Rigid Body
Degrees of Freedom: 4953
Results:
	Steps Completed: 41
	Equilibrium Iterations: 189
	Right Hand Evaluations: 301
	Siffness Reformations: 66
	Other:
		At time t=1.802 the ball has its maximum z-displacement of -1.41 units.
Comments:
	Changed the contact penalty from 100 to 7000 in order to change contact penetration from 0.25 to
	0.0054 (5% of the element thickness)
-->
<febio_spec version="2.0">
	<Module type="solid"/>
	<Control>
		<title>Dynamic Ball with Body Force</title>
		<time_steps>30</time_steps>
		<step_size>0.1</step_size>
		<max_refs>15</max_refs>
		<max_ups>10</max_ups>
		<dtol>0.001</dtol>
		<etol>0.01</etol>
		<rtol>0</rtol>
		<lstol>0.9</lstol>
		<time_stepper>
			<dtmin>0.01</dtmin>
			<dtmax lc="2"></dtmax>
			<max_retries>5</max_retries>
			<opt_iter>100</opt_iter>
		</time_stepper>
		<analysis type="dynamic"/>
	</Control>
	<Globals>
		<Constants>
			<T>0</T>
			<R>0</R>
			<Fc>0</Fc>
		</Constants>
	</Globals>
	<Material>
		<material id="1" name="Material 3" type="neo-Hookean">
			<density>1</density>
			<E>100</E>
			<v>0</v>
		</material>
		<material id="2" name="Material 4" type="rigid body">
			<density>1</density>
		</material>
	</Material>
	<Geometry>
		<Nodes>
			<node id="1">-3.5355339e-001,-3.5355339e-001, 1.6464466e+000</node>
			<node id="2">-2.1648427e-001,-3.5355339e-001, 1.6464466e+000</node>
			<node id="3">-1.0433682e-001,-3.5355339e-001, 1.6464466e+000</node>
			<node id="4"> 0.0000000e+000,-3.5355339e-001, 1.6464466e+000</node>
			<node id="5"> 1.0433682e-001,-3.5355339e-001, 1.6464466e+000</node>
			<node id="6"> 2.1648427e-001,-3.5355339e-001, 1.6464466e+000</node>
			<node id="7"> 3.5355339e-001,-3.5355339e-001, 1.6464466e+000</node>
			<node id="8">-3.5355339e-001,-2.1648427e-001, 1.6464466e+000</node>
			<node id="9">-2.1648427e-001,-2.1648427e-001, 1.6464466e+000</node>
			<node id="10">-1.0433682e-001,-2.1648427e-001, 1.6464466e+000</node>
			<node id="11"> 0.0000000e+000,-2.1648427e-001, 1.6464466e+000</node>
			<node id="12"> 1.0433682e-001,-2.1648427e-001, 1.6464466e+000</node>
			<node id="13"> 2.1648427e-001,-2.1648427e-001, 1.6464466e+000</node>
			<node id="14"> 3.5355339e-001,-2.1648427e-001, 1.6464466e+000</node>
			<node id="15">-3.5355339e-001,-1.0433682e-001, 1.6464466e+000</node>
			<node id="16">-2.1648427e-001,-1.0433682e-001, 1.6464466e+000</node>
			<node id="17">-1.0433682e-001,-1.0433682e-001, 1.6464466e+000</node>
			<node id="18"> 0.0000000e+000,-1.0433682e-001, 1.6464466e+000</node>
			<node id="19"> 1.0433682e-001,-1.0433682e-001, 1.6464466e+000</node>
			<node id="20"> 2.1648427e-001,-1.0433682e-001, 1.6464466e+000</node>
<!-- ... 1639 like lines cut -->
		</Nodes>
		<Elements type="hex8" mat="1" elset="Part6">
			<elem id="1">     1,     2,     9,     8,    50,    51,    58,    57</elem>
			<elem id="2">     2,     3,    10,     9,    51,    52,    59,    58</elem>
			<elem id="3">     3,     4,    11,    10,    52,    53,    60,    59</elem>
			<elem id="4">     4,     5,    12,    11,    53,    54,    61,    60</elem>
			<elem id="5">     5,     6,    13,    12,    54,    55,    62,    61</elem>
			<elem id="6">     6,     7,    14,    13,    55,    56,    63,    62</elem>
			<elem id="7">     8,     9,    16,    15,    57,    58,    65,    64</elem>
			<elem id="8">     9,    10,    17,    16,    58,    59,    66,    65</elem>
			<elem id="9">    10,    11,    18,    17,    59,    60,    67,    66</elem>
			<elem id="10">    11,    12,    19,    18,    60,    61,    68,    67</elem>
			<elem id="11">    12,    13,    20,    19,    61,    62,    69,    68</elem>
			<elem id="12">    13,    14,    21,    20,    62,    63,    70,    69</elem>
			<elem id="13">    15,    16,    23,    22,    64,    65,    72,    71</elem>
			<elem id="14">    16,    17,    24,    23,    65,    66,    73,    72</elem>
			<elem id="15">    17,    18,    25,    24,    66,    67,    74,    73</elem>
			<elem id="16">    18,    19,    26,    25,    67,    68,    75,    74</elem>
			<elem id="17">    19,    20,    27,    26,    68,    69,    76,    75</elem>
			<elem id="18">    20,    21,    28,    27,    69,    70,    77,    76</elem>
			<elem id="19">    22,    23,    30,    29,    71,    72,    79,    78</elem>
			<elem id="20">    23,    24,    31,    30,    72,    73,    80,    79</elem>
<!-- ... 1492 like lines cut -->
		</Elements>
		<Elements type="hex8" mat="2" elset="Part7">
			<elem id="1513">  1652,  1656,  1658,  1654,  1653,  1657,  1659,  1655</elem>
		</Elements>
	</Geometry>
	<Loads>
		<body_load type="const">
			<z lc="1">1</z>
		</body_load>
	</Loads>
	<Contact>
		<contact type="rigid_wall">
			<laugon>0</laugon>
			<tolerance>0.01</tolerance>
			<penalty>7000</penalty>
			<plane>0,0,1,0</plane>
			<surface>
				<quad4 id="1">  1441,  1434,  1483,  1490</quad4>
				<quad4 id="2">  1434,  1435,  1484,  1483</quad4>
				<quad4 id="3">  1441,  1442,  1435,  1434</quad4>
				<quad4 id="4">  1435,  1436,  1485,  1484</quad4>
				<quad4 id="5">  1442,  1443,  1436,  1435</quad4>
				<quad4 id="6">  1436,  1437,  1486,  1485</quad4>
				<quad4 id="7">  1443,  1444,  1437,  1436</quad4>
				<quad4 id="8">  1437,  1438,  1487,  1486</quad4>
				<quad4 id="9">  1444,  1445,  1438,  1437</quad4>
				<quad4 id="10">  1438,  1439,  1488,  1487</quad4>
				<quad4 id="11">  1445,  1446,  1439,  1438</quad4>
				<quad4 id="12">  1440,  1447,  1491,  1489</quad4>
				<quad4 id="13">  1439,  1440,  1489,  1488</quad4>
				<quad4 id="14">  1446,  1447,  1440,  1439</quad4>
				<quad4 id="15">  1448,  1441,  1490,  1492</quad4>
				<quad4 id="16">  1448,  1449,  1442,  1441</quad4>
				<quad4 id="17">  1449,  1450,  1443,  1442</quad4>
				<quad4 id="18">  1450,  1451,  1444,  1443</quad4>
				<quad4 id="19">  1451,  1452,  1445,  1444</quad4>
				<quad4 id="20">  1452,  1453,  1446,  1445</quad4>
<!-- ... 88 like lines cut -->
			</surface>
		</contact>
	</Contact>
	<Constraints>
		<rigid_body mat="2">
			<fixed bc="x"/>
			<fixed bc="y"/>
			<fixed bc="z"/>
			<fixed bc="Rx"/>
			<fixed bc="Ry"/>
			<fixed bc="Rz"/>
		</rigid_body>
	</Constraints>
	<LoadData>
		<loadcurve id="1">
			<loadpoint>0,1</loadpoint>
			<loadpoint>1,1</loadpoint>
		</loadcurve>
        <loadcurve id="2" type="step">
			<loadpoint>0,1</loadpoint>
			<loadpoint>1.8,0.1</loadpoint>
            <loadpoint>1,0.1</loadpoint>			
        </loadcurve>
	</LoadData>
	<Output>
		<plotfile type="febio"></plotfile>
		<logfile>
			<element_data data="Ex">1408</element_data>
		</logfile>
	</Output>
</febio_spec>
