<?xml version="1.0" encoding="ISO-8859-1"?>
<!--
Problem Description:
	A 10-element bar of trans iso Mooney-Rivlin material udergoes active contraction
	in the x-direction.
Main Features:
	Active contraction of transversely isotropic material
Secondary Features:
	
Materials:
	trans iso Mooney-Rivlin
Degrees of Freedom: 84
Results:
	Steps Completed: 10
	Equilibrium Iterations: 39
	Right Hand Evaluations: 49
	Siffness Reformations: 10
	Other:
		The bar has a maximum x-displacement of -1.08 units at time t=1.
 
Comments:
	
-->
<febio_spec version="2.0">
	<Module type="solid"/>
	<Control>
		<title>Active Contraction</title>
		<time_steps>10</time_steps>
		<step_size>0.1</step_size>
		<max_refs>15</max_refs>
		<max_ups>10</max_ups>
		<dtol>0.001</dtol>
		<etol>0.01</etol>
		<rtol>0</rtol>
		<lstol>0.9</lstol>
		<time_stepper>
			<dtmin>0.01</dtmin>
			<dtmax>0.1</dtmax>
			<max_retries>5</max_retries>
			<opt_iter>10</opt_iter>
		</time_stepper>
	</Control>
	<Material>
		<material id="1" name="Material 1" type="trans iso Mooney-Rivlin">
			<c1>1</c1>
			<c2>0</c2>
			<c3>1</c3>
			<c4>1</c4>
			<c5>1</c5>
			<k>100</k>
			<lam_max>10</lam_max>
			<fiber type="vector"> 1.0000000e+000, 0.0000000e+000, 0.0000000e+000</fiber>
			<active_contraction>
				<ascl lc="1">1</ascl>
				<ca0>4.75</ca0>
				<beta>4.35</beta>
				<l0>1.58</l0>
				<refl>2.04</refl>
			</active_contraction>
		</material>
	</Material>
	<Geometry>
		<Nodes>
			<node id="1">-5.0000000e+000,-5.0000000e-001, 0.0000000e+000</node>
			<node id="2">-5.0000000e+000,-5.0000000e-001, 1.0000000e+000</node>
			<node id="3">-5.0000000e+000, 5.0000000e-001, 0.0000000e+000</node>
			<node id="4">-5.0000000e+000, 5.0000000e-001, 1.0000000e+000</node>
			<node id="5">-4.0000000e+000,-5.0000000e-001, 0.0000000e+000</node>
			<node id="6">-4.0000000e+000,-5.0000000e-001, 1.0000000e+000</node>
			<node id="7">-4.0000000e+000, 5.0000000e-001, 0.0000000e+000</node>
			<node id="8">-4.0000000e+000, 5.0000000e-001, 1.0000000e+000</node>
			<node id="9">-3.0000000e+000,-5.0000000e-001, 0.0000000e+000</node>
			<node id="10">-3.0000000e+000,-5.0000000e-001, 1.0000000e+000</node>
			<node id="11">-3.0000000e+000, 5.0000000e-001, 0.0000000e+000</node>
			<node id="12">-3.0000000e+000, 5.0000000e-001, 1.0000000e+000</node>
			<node id="13">-2.0000000e+000,-5.0000000e-001, 0.0000000e+000</node>
			<node id="14">-2.0000000e+000,-5.0000000e-001, 1.0000000e+000</node>
			<node id="15">-2.0000000e+000, 5.0000000e-001, 0.0000000e+000</node>
			<node id="16">-2.0000000e+000, 5.0000000e-001, 1.0000000e+000</node>
			<node id="17">-1.0000000e+000,-5.0000000e-001, 0.0000000e+000</node>
			<node id="18">-1.0000000e+000,-5.0000000e-001, 1.0000000e+000</node>
			<node id="19">-1.0000000e+000, 5.0000000e-001, 0.0000000e+000</node>
			<node id="20">-1.0000000e+000, 5.0000000e-001, 1.0000000e+000</node>
<!-- ... 24 like lines cut -->
		</Nodes>
		<Elements type="hex8" mat="1" elset="Part14">
			<elem id="1">     1,     5,     7,     3,     2,     6,     8,     4</elem>
			<elem id="2">     5,     9,    11,     7,     6,    10,    12,     8</elem>
			<elem id="3">     9,    13,    15,    11,    10,    14,    16,    12</elem>
			<elem id="4">    13,    17,    19,    15,    14,    18,    20,    16</elem>
			<elem id="5">    17,    21,    23,    19,    18,    22,    24,    20</elem>
			<elem id="6">    21,    25,    27,    23,    22,    26,    28,    24</elem>
			<elem id="7">    25,    29,    31,    27,    26,    30,    32,    28</elem>
			<elem id="8">    29,    33,    35,    31,    30,    34,    36,    32</elem>
			<elem id="9">    33,    37,    39,    35,    34,    38,    40,    36</elem>
			<elem id="10">    37,    41,    43,    39,    38,    42,    44,    40</elem>
		</Elements>
	</Geometry>
	<Boundary>
		<fix bc="z">
			<node id="1"/>
			<node id="3"/>
			<node id="5"/>
			<node id="7"/>
			<node id="9"/>
			<node id="11"/>
			<node id="13"/>
			<node id="15"/>
			<node id="17"/>
			<node id="19"/>
			<node id="21"/>
			<node id="23"/>
			<node id="25"/>
			<node id="27"/>
			<node id="29"/>
			<node id="31"/>
			<node id="33"/>
			<node id="35"/>
			<node id="37"/>
			<node id="39"/>
			<node id="41"/>
			<node id="43"/>
		</fix>
		<fix bc="y">
			<node id="1"/>
			<node id="2"/>
			<node id="5"/>
			<node id="6"/>
			<node id="9"/>
			<node id="10"/>
			<node id="13"/>
			<node id="14"/>
			<node id="17"/>
			<node id="18"/>
			<node id="21"/>
			<node id="22"/>
			<node id="25"/>
			<node id="26"/>
			<node id="29"/>
			<node id="30"/>
			<node id="33"/>
			<node id="34"/>
			<node id="37"/>
			<node id="38"/>
			<node id="41"/>
			<node id="42"/>
		</fix>
		<fix bc="x">
			<node id="1"/>
			<node id="2"/>
			<node id="3"/>
			<node id="4"/>
		</fix>
	</Boundary>
	<LoadData>
		<loadcurve id="1">
			<loadpoint>0,0</loadpoint>
			<loadpoint>1,1</loadpoint>
		</loadcurve>
	</LoadData>
	<Output>
		<plotfile type="febio"></plotfile>
		<logfile>
			<element_data data="Ex">10</element_data>
		</logfile>
	</Output>
</febio_spec>

