<?xml version="1.0" encoding="ISO-8859-1"?>
<!--
Problem Description:
	A 10x10x10 block of Trans-isotropic Veronda-Westmann material with a diagonal fiber direction
	(nodes 1 to 7) undergoes an expansion of 0.2 units in the z-direction at time t=1.
Main Features:
	Fiber with local node numbering
Secondary Features:
	
Materials:
	Trans-iso Veronda-Westmann
Degrees of Freedom: 3630
Results:
	Steps Completed: 10
	Equilibrium Iterations: 30
	Right Hand Evaluations: 40
	Siffness Reformations: 10
	Other:
		The maximum effective strain is 0.314 at time t=1.
Comments:
	
-->
<febio_spec version="2.0">
	<Module type="solid"/>
	<Control>
		<title>Fiber with Local Node Numbering</title>
		<time_steps>10</time_steps>
		<step_size>0.1</step_size>
		<max_refs>15</max_refs>
		<max_ups>10</max_ups>
		<dtol>0.001</dtol>
		<etol>0.01</etol>
		<rtol>0</rtol>
		<lstol>0.9</lstol>
		<time_stepper>
			<dtmin>0.01</dtmin>
			<dtmax>0.1</dtmax>
			<max_retries>5</max_retries>
			<opt_iter>10</opt_iter>
		</time_stepper>
		<analysis type="static"/>
	</Control>
	<Globals>
		<Constants>
			<T>0</T>
			<R>0</R>
			<Fc>0</Fc>
		</Constants>
	</Globals>
	<Material>
		<material id="1" name="Material 1" type="trans iso Veronda-Westmann">
			<density>1</density>
			<c1>1</c1>
			<c2>0.5</c2>
			<k>100</k>
			<c3>1</c3>
			<c4>1</c4>
			<c5>1</c5>
			<lam_max>10</lam_max>
			<fiber type="local">     1,     7</fiber>
		</material>
	</Material>
	<Geometry>
		<Nodes>
			<node id="1">-5.0000000e-001,-5.0000000e-001, 0.0000000e+000</node>
			<node id="2">-5.0000000e-001,-5.0000000e-001, 1.0000000e-001</node>
			<node id="3">-5.0000000e-001,-5.0000000e-001, 2.0000000e-001</node>
			<node id="4">-5.0000000e-001,-5.0000000e-001, 3.0000000e-001</node>
			<node id="5">-5.0000000e-001,-5.0000000e-001, 4.0000000e-001</node>
			<node id="6">-5.0000000e-001,-5.0000000e-001, 5.0000000e-001</node>
			<node id="7">-5.0000000e-001,-5.0000000e-001, 6.0000000e-001</node>
			<node id="8">-5.0000000e-001,-5.0000000e-001, 7.0000000e-001</node>
			<node id="9">-5.0000000e-001,-5.0000000e-001, 8.0000000e-001</node>
			<node id="10">-5.0000000e-001,-5.0000000e-001, 9.0000000e-001</node>
			<node id="11">-5.0000000e-001,-5.0000000e-001, 1.0000000e+000</node>
			<node id="12">-5.0000000e-001,-4.0000000e-001, 0.0000000e+000</node>
			<node id="13">-5.0000000e-001,-4.0000000e-001, 1.0000000e-001</node>
			<node id="14">-5.0000000e-001,-4.0000000e-001, 2.0000000e-001</node>
			<node id="15">-5.0000000e-001,-4.0000000e-001, 3.0000000e-001</node>
			<node id="16">-5.0000000e-001,-4.0000000e-001, 4.0000000e-001</node>
			<node id="17">-5.0000000e-001,-4.0000000e-001, 5.0000000e-001</node>
			<node id="18">-5.0000000e-001,-4.0000000e-001, 6.0000000e-001</node>
			<node id="19">-5.0000000e-001,-4.0000000e-001, 7.0000000e-001</node>
			<node id="20">-5.0000000e-001,-4.0000000e-001, 8.0000000e-001</node>
<!-- ... 1311 like lines cut -->
		</Nodes>
		<Elements type="hex8" mat="1" elset="Part2">
			<elem id="1">     1,   122,   133,    12,     2,   123,   134,    13</elem>
			<elem id="2">     2,   123,   134,    13,     3,   124,   135,    14</elem>
			<elem id="3">     3,   124,   135,    14,     4,   125,   136,    15</elem>
			<elem id="4">     4,   125,   136,    15,     5,   126,   137,    16</elem>
			<elem id="5">     5,   126,   137,    16,     6,   127,   138,    17</elem>
			<elem id="6">     6,   127,   138,    17,     7,   128,   139,    18</elem>
			<elem id="7">     7,   128,   139,    18,     8,   129,   140,    19</elem>
			<elem id="8">     8,   129,   140,    19,     9,   130,   141,    20</elem>
			<elem id="9">     9,   130,   141,    20,    10,   131,   142,    21</elem>
			<elem id="10">    10,   131,   142,    21,    11,   132,   143,    22</elem>
			<elem id="11">    12,   133,   144,    23,    13,   134,   145,    24</elem>
			<elem id="12">    13,   134,   145,    24,    14,   135,   146,    25</elem>
			<elem id="13">    14,   135,   146,    25,    15,   136,   147,    26</elem>
			<elem id="14">    15,   136,   147,    26,    16,   137,   148,    27</elem>
			<elem id="15">    16,   137,   148,    27,    17,   138,   149,    28</elem>
			<elem id="16">    17,   138,   149,    28,    18,   139,   150,    29</elem>
			<elem id="17">    18,   139,   150,    29,    19,   140,   151,    30</elem>
			<elem id="18">    19,   140,   151,    30,    20,   141,   152,    31</elem>
			<elem id="19">    20,   141,   152,    31,    21,   142,   153,    32</elem>
			<elem id="20">    21,   142,   153,    32,    22,   143,   154,    33</elem>
<!-- ... 980 like lines cut -->
		</Elements>
	</Geometry>
	<Boundary>
		<fix bc="z">
			<node id="1"/>
			<node id="12"/>
			<node id="23"/>
			<node id="34"/>
			<node id="45"/>
			<node id="56"/>
			<node id="67"/>
			<node id="78"/>
			<node id="89"/>
			<node id="100"/>
			<node id="111"/>
			<node id="122"/>
			<node id="133"/>
			<node id="144"/>
			<node id="155"/>
			<node id="166"/>
			<node id="177"/>
			<node id="188"/>
			<node id="199"/>
			<node id="210"/>
<!-- ... 101 like lines cut -->
		</fix>
		<fix bc="y">
			<node id="1"/>
			<node id="2"/>
			<node id="3"/>
			<node id="4"/>
			<node id="5"/>
			<node id="6"/>
			<node id="7"/>
			<node id="8"/>
			<node id="9"/>
			<node id="10"/>
			<node id="11"/>
			<node id="122"/>
			<node id="123"/>
			<node id="124"/>
			<node id="125"/>
			<node id="126"/>
			<node id="127"/>
			<node id="128"/>
			<node id="129"/>
			<node id="130"/>
<!-- ... 101 like lines cut -->
		</fix>
		<fix bc="x">
			<node id="1"/>
			<node id="2"/>
			<node id="3"/>
			<node id="4"/>
			<node id="5"/>
			<node id="6"/>
			<node id="7"/>
			<node id="8"/>
			<node id="9"/>
			<node id="10"/>
			<node id="11"/>
			<node id="12"/>
			<node id="13"/>
			<node id="14"/>
			<node id="15"/>
			<node id="16"/>
			<node id="17"/>
			<node id="18"/>
			<node id="19"/>
			<node id="20"/>
<!-- ... 101 like lines cut -->
		</fix>
		<prescribe bc="z" lc="1">
			<node id="11">1</node>
			<node id="22">1</node>
			<node id="33">1</node>
			<node id="44">1</node>
			<node id="55">1</node>
			<node id="66">1</node>
			<node id="77">1</node>
			<node id="88">1</node>
			<node id="99">1</node>
			<node id="110">1</node>
			<node id="121">1</node>
			<node id="132">1</node>
			<node id="143">1</node>
			<node id="154">1</node>
			<node id="165">1</node>
			<node id="176">1</node>
			<node id="187">1</node>
			<node id="198">1</node>
			<node id="209">1</node>
			<node id="220">1</node>
<!-- ... 101 like lines cut -->
		</prescribe>
	</Boundary>
	<LoadData>
		<loadcurve id="1" type="linear">
			<loadpoint>0,0</loadpoint>
			<loadpoint>1,0.2</loadpoint>
		</loadcurve>
	</LoadData>
	<Output>
		<plotfile type="febio"></plotfile>
		<logfile>
			<element_data data="Ez">1000</element_data>
		</logfile>
	</Output>
</febio_spec>
