<?xml version="1.0" encoding="ISO-8859-1"?>
<!--
Problem Description:
	Tube where a rotational velocity is prescribed on inner and
	outer walls. This is a couette flow problem. Run one newton
	step and then use Broyden for rest
Main Features:
        Rotational velocity
        Broyden
        Multistep
Secondary Features:
	Steady State
        Dynamic
        Gen alpha
	no diverge reform
	no ref each step
	Newtonian fluid
Materials:
	Newtonian Fluid
Degrees of Freedom: 3968
Results:
	Steps Completed: 50
	Equilibrium Iterations: 127
	Right Hand Evaluations: 177
	Stiffness Reformations: 6
	Other:
		The total nodal fluid velocity at node 683 at t=0.5 is 0.74998.
Comments:
       
-->
<febio_spec version="2.5">
	<Module type="fluid"/>
	<Globals>
		<Constants>
			<T>0</T>
			<R>0</R>
			<Fc>0</Fc>
		</Constants>
	</Globals>
	<Material>
		<material id="1" name="Material1" type="fluid">
			<density>1</density>
			<k>1e+09</k>
			<viscous type="Newtonian fluid">
				<mu>1</mu>
				<kappa>0</kappa>
			</viscous>
		</material>
	</Material>
	<Geometry>
		<Nodes name="Object06">
			<node id="1">  5.0000000e-01,  0.0000000e+00,  0.0000000e+00</node>
			<node id="2">  5.0963069e-01,  0.0000000e+00,  0.0000000e+00</node>
			<node id="3">  5.2118752e-01,  0.0000000e+00,  0.0000000e+00</node>
			<node id="4">  5.3505571e-01,  0.0000000e+00,  0.0000000e+00</node>
			<node id="5">  5.5169754e-01,  0.0000000e+00,  0.0000000e+00</node>
			<node id="6">  5.7166774e-01,  0.0000000e+00,  0.0000000e+00</node>
			<node id="7">  5.9563197e-01,  0.0000000e+00,  0.0000000e+00</node>
			<node id="8">  6.2438906e-01,  0.0000000e+00,  0.0000000e+00</node>
			<node id="9">  6.5889756e-01,  0.0000000e+00,  0.0000000e+00</node>
			<node id="10">  7.0030776e-01,  0.0000000e+00,  0.0000000e+00</node>
			<node id="11">  7.5000000e-01,  0.0000000e+00,  0.0000000e+00</node>
			<node id="12">  7.9969224e-01,  0.0000000e+00,  0.0000000e+00</node>
			<node id="13">  8.4110244e-01,  0.0000000e+00,  0.0000000e+00</node>
			<node id="14">  8.7561094e-01,  0.0000000e+00,  0.0000000e+00</node>
			<node id="15">  9.0436803e-01,  0.0000000e+00,  0.0000000e+00</node>
			<node id="16">  9.2833226e-01,  0.0000000e+00,  0.0000000e+00</node>
			<node id="17">  9.4830246e-01,  0.0000000e+00,  0.0000000e+00</node>
			<node id="18">  9.6494429e-01,  0.0000000e+00,  0.0000000e+00</node>
			<node id="19">  9.7881248e-01,  0.0000000e+00,  0.0000000e+00</node>
			<node id="20">  9.9036931e-01,  0.0000000e+00,  0.0000000e+00</node>
<!-- ... 1324 like lines cut -->
		</Nodes>
		<Elements type="hex8" mat="1" name="Part1">
			<elem id="1">     1,     2,    23,    22,   673,   674,   695,   694</elem>
			<elem id="2">     2,     3,    24,    23,   674,   675,   696,   695</elem>
			<elem id="3">     3,     4,    25,    24,   675,   676,   697,   696</elem>
			<elem id="4">     4,     5,    26,    25,   676,   677,   698,   697</elem>
			<elem id="5">     5,     6,    27,    26,   677,   678,   699,   698</elem>
			<elem id="6">     6,     7,    28,    27,   678,   679,   700,   699</elem>
			<elem id="7">     7,     8,    29,    28,   679,   680,   701,   700</elem>
			<elem id="8">     8,     9,    30,    29,   680,   681,   702,   701</elem>
			<elem id="9">     9,    10,    31,    30,   681,   682,   703,   702</elem>
			<elem id="10">    10,    11,    32,    31,   682,   683,   704,   703</elem>
			<elem id="11">    11,    12,    33,    32,   683,   684,   705,   704</elem>
			<elem id="12">    12,    13,    34,    33,   684,   685,   706,   705</elem>
			<elem id="13">    13,    14,    35,    34,   685,   686,   707,   706</elem>
			<elem id="14">    14,    15,    36,    35,   686,   687,   708,   707</elem>
			<elem id="15">    15,    16,    37,    36,   687,   688,   709,   708</elem>
			<elem id="16">    16,    17,    38,    37,   688,   689,   710,   709</elem>
			<elem id="17">    17,    18,    39,    38,   689,   690,   711,   710</elem>
			<elem id="18">    18,    19,    40,    39,   690,   691,   712,   711</elem>
			<elem id="19">    19,    20,    41,    40,   691,   692,   713,   712</elem>
			<elem id="20">    20,    21,    42,    41,   692,   693,   714,   713</elem>
<!-- ... 620 like lines cut -->
		</Elements>
		<NodeSet name="FixedFluidVelocity1">
			<node id="1"/>
			<node id="2"/>
			<node id="3"/>
			<node id="4"/>
			<node id="5"/>
			<node id="6"/>
			<node id="7"/>
			<node id="8"/>
			<node id="9"/>
			<node id="10"/>
			<node id="11"/>
			<node id="12"/>
			<node id="13"/>
			<node id="14"/>
			<node id="15"/>
			<node id="16"/>
			<node id="17"/>
			<node id="18"/>
			<node id="19"/>
			<node id="20"/>
<!-- ... 10732 like lines cut -->
		</NodeSet>
		<NodeSet name="FixedFluidDilatation1">
			<node id="1"/>
			<node id="22"/>
			<node id="43"/>
			<node id="64"/>
			<node id="85"/>
			<node id="106"/>
			<node id="127"/>
			<node id="148"/>
			<node id="169"/>
			<node id="190"/>
			<node id="211"/>
			<node id="232"/>
			<node id="253"/>
			<node id="274"/>
			<node id="295"/>
			<node id="316"/>
			<node id="337"/>
			<node id="358"/>
			<node id="379"/>
			<node id="400"/>
<!-- ... 236 like lines cut -->
		</NodeSet>
		<Surface name="FluidRotationalVelocity1">
			<quad4 id="1">    21,    42,   714,   693</quad4>
			<quad4 id="2">    42,    63,   735,   714</quad4>
			<quad4 id="3">    63,    84,   756,   735</quad4>
			<quad4 id="4">    84,   105,   777,   756</quad4>
			<quad4 id="5">   105,   126,   798,   777</quad4>
			<quad4 id="6">   126,   147,   819,   798</quad4>
			<quad4 id="7">   147,   168,   840,   819</quad4>
			<quad4 id="8">   168,   189,   861,   840</quad4>
			<quad4 id="9">   189,   210,   882,   861</quad4>
			<quad4 id="10">   210,   231,   903,   882</quad4>
			<quad4 id="11">   231,   252,   924,   903</quad4>
			<quad4 id="12">   252,   273,   945,   924</quad4>
			<quad4 id="13">   273,   294,   966,   945</quad4>
			<quad4 id="14">   294,   315,   987,   966</quad4>
			<quad4 id="15">   315,   336,  1008,   987</quad4>
			<quad4 id="16">   336,   357,  1029,  1008</quad4>
			<quad4 id="17">   357,   378,  1050,  1029</quad4>
			<quad4 id="18">   378,   399,  1071,  1050</quad4>
			<quad4 id="19">   399,   420,  1092,  1071</quad4>
			<quad4 id="20">   420,   441,  1113,  1092</quad4>
<!-- ... 12 like lines cut -->
		</Surface>
		<Surface name="FluidRotationalVelocity2">
			<quad4 id="1">    22,     1,   673,   694</quad4>
			<quad4 id="2">    43,    22,   694,   715</quad4>
			<quad4 id="3">    64,    43,   715,   736</quad4>
			<quad4 id="4">    85,    64,   736,   757</quad4>
			<quad4 id="5">   106,    85,   757,   778</quad4>
			<quad4 id="6">   127,   106,   778,   799</quad4>
			<quad4 id="7">   148,   127,   799,   820</quad4>
			<quad4 id="8">   169,   148,   820,   841</quad4>
			<quad4 id="9">   190,   169,   841,   862</quad4>
			<quad4 id="10">   211,   190,   862,   883</quad4>
			<quad4 id="11">   232,   211,   883,   904</quad4>
			<quad4 id="12">   253,   232,   904,   925</quad4>
			<quad4 id="13">   274,   253,   925,   946</quad4>
			<quad4 id="14">   295,   274,   946,   967</quad4>
			<quad4 id="15">   316,   295,   967,   988</quad4>
			<quad4 id="16">   337,   316,   988,  1009</quad4>
			<quad4 id="17">   358,   337,  1009,  1030</quad4>
			<quad4 id="18">   379,   358,  1030,  1051</quad4>
			<quad4 id="19">   400,   379,  1051,  1072</quad4>
			<quad4 id="20">   421,   400,  1072,  1093</quad4>
<!-- ... 12 like lines cut -->
		</Surface>
	</Geometry>
	<Boundary>
		<fix bc="wz" node_set="FixedFluidVelocity1"/>
		<fix bc="ef" node_set="FixedFluidDilatation1"/>
	</Boundary>
	<Loads>
		<surface_load type="fluid rotational velocity" surface="FluidRotationalVelocity1">
			<angular_speed lc="1">2</angular_speed>
			<axis>  0.0000000e+00,  0.0000000e+00,  1.0000000e+00</axis>
			<origin>  0.0000000e+00,  0.0000000e+00,  0.0000000e+00</origin>
		</surface_load>
		<surface_load type="fluid rotational velocity" surface="FluidRotationalVelocity2">
			<angular_speed lc="2">1</angular_speed>
			<axis>  0.0000000e+00,  0.0000000e+00,  1.0000000e+00</axis>
			<origin>  0.0000000e+00,  0.0000000e+00,  0.0000000e+00</origin>
		</surface_load>
	</Loads>
	<LoadData>
		<loadcurve id="1" type="step">
			<point>0,0</point>
			<point>1,1</point>
		</loadcurve>
		<loadcurve id="2" type="step">
			<point>0,0</point>
			<point>1,1</point>
		</loadcurve>
	</LoadData>
	<Output>
		<plotfile type="febio">
			<var type="displacement"/>
			<var type="fluid pressure"/>
			<var type="fluid acceleration"/>
			<var type="fluid dilatation"/>
			<var type="fluid rate of deformation"/>
			<var type="fluid stress"/>
			<var type="fluid velocity"/>
			<var type="fluid volume ratio"/>
			<var type="fluid vorticity"/>
			<var type="nodal fluid velocity"/>
		</plotfile>
	</Output>
	<Step>
	<Control>
		<time_steps>1</time_steps>
		<step_size>0.01</step_size>
		<max_refs>5</max_refs>
		<max_ups>0</max_ups>
		<diverge_reform>1</diverge_reform>
		<reform_each_time_step>1</reform_each_time_step>
		<vtol>0.001</vtol>
		<ftol>0.001</ftol>
		<etol>0.01</etol>
		<rtol>0.001</rtol>
		<lstol>0.9</lstol>
		<min_residual>0</min_residual>
		<rhoi>0</rhoi>
		<qnmethod>1</qnmethod>
		<time_stepper>
			<dtmin>0.001</dtmin>
			<dtmax>0.01</dtmax>
			<max_retries>0</max_retries>
			<opt_iter>15</opt_iter>
		</time_stepper>
		<analysis type="dynamic"/>
	</Control>
	</Step>
	<Step>
	<Control>
		<time_steps>49</time_steps>
		<step_size>0.01</step_size>
		<max_refs>5</max_refs>
		<max_ups>50</max_ups>
		<diverge_reform>0</diverge_reform>
		<reform_each_time_step>0</reform_each_time_step>
		<vtol>0.001</vtol>
		<ftol>0.001</ftol>
		<etol>0.01</etol>
		<rtol>0.001</rtol>
		<lstol>0.9</lstol>
		<min_residual>0</min_residual>
		<rhoi>0</rhoi>
		<qnmethod>1</qnmethod>
		<time_stepper>
			<dtmin>0.001</dtmin>
			<dtmax>0.01</dtmax>
			<max_retries>0</max_retries>
			<opt_iter>15</opt_iter>
		</time_stepper>
		<analysis type="dynamic"/>
	</Control>
	</Step>
</febio_spec>
