<?xml version="1.0" encoding="ISO-8859-1"?>
<!--
Problem Description:
	Flow in rectangular channel with a block. Vorticies form due
	to the block as rhoi=0.5. Fluid normal velocity load on inlet, 0 ef outlet.
Main Features:
        Normal fluid velocity load
	dynamic
	Broyden
	Post BL
	Backflow/Tangential Stabilization
	generalized alpha
Secondary Features:
	Newtonian fluid
	No diverge reform
	no ref each step
Materials:
	Newtonian Fluid
Degrees of Freedom: 6842
Results:
	Steps Completed: 800
	Equilibrium Iterations: 5426
	Right Hand Evaluations: 6244
	Stiffness Reformations: 93
	Other:
		The total nodal fluid velocity on node 1078 at t=80 is 2.23103.
Comments:
        Similar examples seen in results of
        Ateshian GA, Shim JJ, Maas SA, Weiss JA. (2018) J Biomech Eng, 140(2):021001-021001-17.
-->
<febio_spec version="2.0">
	<Module type="fluid"/>
	<Control>
		<time_steps>800</time_steps>
		<step_size>0.1</step_size>
		<max_refs>2</max_refs>
		<qnmethod>2</qnmethod>
		<max_ups>50</max_ups>
		<vtol>0.001</vtol>
		<ftol>0.001</ftol>
		<etol>0.01</etol>
		<rtol>0.001</rtol>
		<lstol>0.9</lstol>
		<min_residual>1e-16</min_residual>
		<diverge_reform>0</diverge_reform>
		<reform_each_time_step>0</reform_each_time_step>
		<analysis type="dynamic"/>
		<symmetric_stiffness>0</symmetric_stiffness>
		<rhoi>0.5</rhoi>
	</Control>
	<Globals>
		<Constants>
			<T>0</T>
			<R>0</R>
			<Fc>0</Fc>
		</Constants>
	</Globals>
	<Material>
		<material id="1" name="Material1" type="fluid">
			<density>1</density>
			<k>1e+09</k>
			<viscous type="Newtonian fluid">
				<mu>0.0025</mu>
				<kappa>0</kappa>
			</viscous>
		</material>
	</Material>
	<Geometry>
		<Nodes>
			<node id="1">  0.0000000e+00,  0.0000000e+00,  0.0000000e+00</node>
			<node id="2">  0.0000000e+00,  0.0000000e+00,  1.0000000e-01</node>
			<node id="3">  0.0000000e+00,  2.5000000e-01,  0.0000000e+00</node>
			<node id="4">  0.0000000e+00,  2.5000000e-01,  1.0000000e-01</node>
			<node id="5">  0.0000000e+00,  5.0000000e-01,  0.0000000e+00</node>
			<node id="6">  0.0000000e+00,  5.0000000e-01,  1.0000000e-01</node>
			<node id="7">  0.0000000e+00,  7.5000000e-01,  0.0000000e+00</node>
			<node id="8">  0.0000000e+00,  7.5000000e-01,  1.0000000e-01</node>
			<node id="9">  0.0000000e+00,  1.0000000e+00,  0.0000000e+00</node>
			<node id="10">  0.0000000e+00,  1.0000000e+00,  1.0000000e-01</node>
			<node id="11">  0.0000000e+00,  1.2500000e+00,  0.0000000e+00</node>
			<node id="12">  0.0000000e+00,  1.2500000e+00,  1.0000000e-01</node>
			<node id="13">  0.0000000e+00,  1.5000000e+00,  0.0000000e+00</node>
			<node id="14">  0.0000000e+00,  1.5000000e+00,  1.0000000e-01</node>
			<node id="15">  0.0000000e+00,  1.7500000e+00,  0.0000000e+00</node>
			<node id="16">  0.0000000e+00,  1.7500000e+00,  1.0000000e-01</node>
			<node id="17">  0.0000000e+00,  2.0000000e+00,  0.0000000e+00</node>
			<node id="18">  0.0000000e+00,  2.0000000e+00,  1.0000000e-01</node>
			<node id="19">  0.0000000e+00,  2.2500000e+00,  0.0000000e+00</node>
			<node id="20">  0.0000000e+00,  2.2500000e+00,  1.0000000e-01</node>
<!-- ... 2438 like lines cut -->
		</Nodes>
		<Elements type="hex8" mat="1" elset="Part2">
			<elem id="1">     3,    25,    27,     5,     4,    26,    28,     6</elem>
			<elem id="2">     5,    27,    29,     7,     6,    28,    30,     8</elem>
			<elem id="3">     7,    29,    31,     9,     8,    30,    32,    10</elem>
			<elem id="4">     9,    31,    33,    11,    10,    32,    34,    12</elem>
			<elem id="5">    11,    33,    35,    13,    12,    34,    36,    14</elem>
			<elem id="6">    13,    35,    37,    15,    14,    36,    38,    16</elem>
			<elem id="7">    15,    37,    39,    17,    16,    38,    40,    18</elem>
			<elem id="8">    17,    39,    41,    19,    18,    40,    42,    20</elem>
			<elem id="9">    25,    47,    49,    27,    26,    48,    50,    28</elem>
			<elem id="10">    27,    49,    51,    29,    28,    50,    52,    30</elem>
			<elem id="11">    29,    51,    53,    31,    30,    52,    54,    32</elem>
			<elem id="12">    31,    53,    55,    33,    32,    54,    56,    34</elem>
			<elem id="13">    33,    55,    57,    35,    34,    56,    58,    36</elem>
			<elem id="14">    35,    57,    59,    37,    36,    58,    60,    38</elem>
			<elem id="15">    37,    59,    61,    39,    38,    60,    62,    40</elem>
			<elem id="16">    39,    61,    63,    41,    40,    62,    64,    42</elem>
			<elem id="17">    47,    69,    71,    49,    48,    70,    72,    50</elem>
			<elem id="18">    49,    71,    73,    51,    50,    72,    74,    52</elem>
			<elem id="19">    51,    73,    75,    53,    52,    74,    76,    54</elem>
			<elem id="20">    53,    75,    77,    55,    54,    76,    78,    56</elem>
<!-- ... 872 like lines cut -->
		</Elements>
		<Elements type="penta6" mat="1" elset="Part2">
			<elem id="893">   311,  1876,  1900,   312,  1882,  1906</elem>
			<elem id="894">   311,  1900,  1888,   312,  1906,  1894</elem>
			<elem id="895">   433,  2021,  2044,   434,  2033,  2050</elem>
			<elem id="896">   433,  2044,  2020,   434,  2050,  2032</elem>
			<elem id="897">   339,  1954,  2440,   340,  1966,  2446</elem>
			<elem id="898">   339,  2440,  1931,   340,  2446,  1937</elem>
			<elem id="899">   409,  2080,  2452,   410,  2086,  2458</elem>
			<elem id="900">   409,  2452,  2003,   410,  2458,  2009</elem>
		</Elements>
		<Elements type="hex8" mat="1" elset="Part1">
			<elem id="901">   341,   355,   357,   343,   342,   356,   358,   344</elem>
			<elem id="902">   343,   357,   359,   345,   344,   358,   360,   346</elem>
			<elem id="903">   345,   359,   361,   347,   346,   360,   362,   348</elem>
			<elem id="904">   347,   361,   363,   349,   348,   362,   364,   350</elem>
			<elem id="905">   355,   369,   371,   357,   356,   370,   372,   358</elem>
			<elem id="906">   357,   371,   373,   359,   358,   372,   374,   360</elem>
			<elem id="907">   359,   373,   375,   361,   360,   374,   376,   362</elem>
			<elem id="908">   361,   375,   377,   363,   362,   376,   378,   364</elem>
			<elem id="909">   369,   383,   385,   371,   370,   384,   386,   372</elem>
			<elem id="910">   371,   385,   387,   373,   372,   386,   388,   374</elem>
			<elem id="911">   373,   387,   389,   375,   374,   388,   390,   376</elem>
			<elem id="912">   375,   389,   391,   377,   376,   390,   392,   378</elem>
			<elem id="913">   383,   397,   399,   385,   384,   398,   400,   386</elem>
			<elem id="914">   385,   399,   401,   387,   386,   400,   402,   388</elem>
			<elem id="915">   387,   401,   403,   389,   388,   402,   404,   390</elem>
			<elem id="916">   389,   403,   405,   391,   390,   404,   406,   392</elem>
			<elem id="917">   397,   411,   413,   399,   398,   412,   414,   400</elem>
			<elem id="918">   399,   413,   415,   401,   400,   414,   416,   402</elem>
			<elem id="919">   401,   415,   417,   403,   402,   416,   418,   404</elem>
			<elem id="920">   403,   417,   419,   405,   404,   418,   420,   406</elem>
		</Elements>
		<Elements type="hex8" mat="1" elset="Part3">
			<elem id="921">   411,   441,   443,   413,   412,   442,   444,   414</elem>
			<elem id="922">   413,   443,   445,   415,   414,   444,   446,   416</elem>
			<elem id="923">   415,   445,   447,   417,   416,   446,   448,   418</elem>
			<elem id="924">   417,   447,   449,   419,   418,   448,   450,   420</elem>
			<elem id="925">   433,   455,   457,   435,   434,   456,   458,   436</elem>
			<elem id="926">   435,   457,   459,   437,   436,   458,   460,   438</elem>
			<elem id="927">   437,   459,   461,   439,   438,   460,   462,   440</elem>
			<elem id="928">   439,   461,   463,   441,   440,   462,   464,   442</elem>
			<elem id="929">   441,   463,   465,   443,   442,   464,   466,   444</elem>
			<elem id="930">   443,   465,   467,   445,   444,   466,   468,   446</elem>
			<elem id="931">   445,   467,   469,   447,   446,   468,   470,   448</elem>
			<elem id="932">   447,   469,   471,   449,   448,   470,   472,   450</elem>
			<elem id="933">   455,   477,   479,   457,   456,   478,   480,   458</elem>
			<elem id="934">   457,   479,   481,   459,   458,   480,   482,   460</elem>
			<elem id="935">   459,   481,   483,   461,   460,   482,   484,   462</elem>
			<elem id="936">   461,   483,   485,   463,   462,   484,   486,   464</elem>
			<elem id="937">   463,   485,   487,   465,   464,   486,   488,   466</elem>
			<elem id="938">   465,   487,   489,   467,   466,   488,   490,   468</elem>
			<elem id="939">   467,   489,   491,   469,   468,   490,   492,   470</elem>
			<elem id="940">   469,   491,   493,   471,   470,   492,   494,   472</elem>
<!-- ... 216 like lines cut -->
		</Elements>
	</Geometry>
	<Boundary>
		<fix bc="wz">
			<node id="1"/>
			<node id="2"/>
			<node id="3"/>
			<node id="4"/>
			<node id="5"/>
			<node id="6"/>
			<node id="7"/>
			<node id="8"/>
			<node id="9"/>
			<node id="10"/>
			<node id="11"/>
			<node id="12"/>
			<node id="13"/>
			<node id="14"/>
			<node id="15"/>
			<node id="16"/>
			<node id="17"/>
			<node id="18"/>
			<node id="19"/>
			<node id="20"/>
<!-- ... 14728 like lines cut -->
		</fix>
		<fix bc="wxy">
			<node id="1"/>
			<node id="2"/>
			<node id="21"/>
			<node id="22"/>
			<node id="23"/>
			<node id="24"/>
			<node id="43"/>
			<node id="44"/>
			<node id="45"/>
			<node id="46"/>
			<node id="65"/>
			<node id="66"/>
			<node id="67"/>
			<node id="68"/>
			<node id="87"/>
			<node id="88"/>
			<node id="89"/>
			<node id="90"/>
			<node id="109"/>
			<node id="110"/>
<!-- ... 1300 like lines cut -->
		</fix>
		<fix bc="wy">
			<node id="1"/>
			<node id="2"/>
			<node id="3"/>
			<node id="4"/>
			<node id="5"/>
			<node id="6"/>
			<node id="7"/>
			<node id="8"/>
			<node id="9"/>
			<node id="10"/>
			<node id="11"/>
			<node id="12"/>
			<node id="13"/>
			<node id="14"/>
			<node id="15"/>
			<node id="16"/>
			<node id="17"/>
			<node id="18"/>
			<node id="19"/>
			<node id="20"/>
<!-- ... 26 like lines cut -->
		</fix>
		<fix bc="ef">
			<node id="1069"/>
			<node id="1070"/>
			<node id="1071"/>
			<node id="1072"/>
			<node id="1073"/>
			<node id="1074"/>
			<node id="1075"/>
			<node id="1076"/>
			<node id="1077"/>
			<node id="1078"/>
			<node id="1079"/>
			<node id="1080"/>
			<node id="1081"/>
			<node id="1082"/>
			<node id="1083"/>
			<node id="1084"/>
			<node id="1085"/>
			<node id="1086"/>
			<node id="1087"/>
			<node id="1088"/>
<!-- ... 118 like lines cut -->
		</fix>
		<fix bc="ef">
			<node id="1"/>
			<node id="2"/>
			<node id="21"/>
			<node id="22"/>
			<node id="1"/>
			<node id="2"/>
			<node id="21"/>
			<node id="22"/>
		</fix>
	</Boundary>
	<Loads>
		<surface_load type="fluid normal velocity">
			<velocity lc="1">-1</velocity>
			<prescribe_nodal_velocities>1</prescribe_nodal_velocities>
			<parabolic>0</parabolic>
			<surface>
				<quad4 id="1">     5,     3,     4,     6</quad4>
				<quad4 id="2">     7,     5,     6,     8</quad4>
				<quad4 id="3">     9,     7,     8,    10</quad4>
				<quad4 id="4">    11,     9,    10,    12</quad4>
				<quad4 id="5">    13,    11,    12,    14</quad4>
				<quad4 id="6">    15,    13,    14,    16</quad4>
				<quad4 id="7">    17,    15,    16,    18</quad4>
				<quad4 id="8">    19,    17,    18,    20</quad4>
				<quad4 id="9">    21,  1097,  1109,    22</quad4>
				<quad4 id="10">  1097,  1098,  1110,  1109</quad4>
				<quad4 id="11">  1098,  1099,  1111,  1110</quad4>
				<quad4 id="12">  1099,  1100,  1112,  1111</quad4>
				<quad4 id="13">  1100,  1101,  1113,  1112</quad4>
				<quad4 id="14">  1101,  1102,  1114,  1113</quad4>
				<quad4 id="15">  1102,    19,    20,  1114</quad4>
				<quad4 id="16">     3,  1709,  1721,     4</quad4>
				<quad4 id="17">  1709,  1710,  1722,  1721</quad4>
				<quad4 id="18">  1710,  1711,  1723,  1722</quad4>
				<quad4 id="19">  1711,  1712,  1724,  1723</quad4>
				<quad4 id="20">  1712,  1713,  1725,  1724</quad4>
				<quad4 id="21">  1713,  1714,  1726,  1725</quad4>
				<quad4 id="22">  1714,     1,     2,  1726</quad4>
			</surface>
		</surface_load>
		<surface_load type="fluid backflow stabilization">
			<beta lc="2">1</beta>
			<surface>
				<quad4 id="1">  1071,  1073,  1074,  1072</quad4>
				<quad4 id="2">  1073,  1075,  1076,  1074</quad4>
				<quad4 id="3">  1075,  1077,  1078,  1076</quad4>
				<quad4 id="4">  1077,  1079,  1080,  1078</quad4>
				<quad4 id="5">  1079,  1081,  1082,  1080</quad4>
				<quad4 id="6">  1081,  1083,  1084,  1082</quad4>
				<quad4 id="7">  1083,  1085,  1086,  1084</quad4>
				<quad4 id="8">  1085,  1087,  1088,  1086</quad4>
				<quad4 id="9">  1696,  1089,  1090,  1702</quad4>
				<quad4 id="10">  1695,  1696,  1702,  1701</quad4>
				<quad4 id="11">  1694,  1695,  1701,  1700</quad4>
				<quad4 id="12">  1693,  1694,  1700,  1699</quad4>
				<quad4 id="13">  1692,  1693,  1699,  1698</quad4>
				<quad4 id="14">  1691,  1692,  1698,  1697</quad4>
				<quad4 id="15">  1087,  1691,  1697,  1088</quad4>
				<quad4 id="16">  2428,  1071,  1072,  2434</quad4>
				<quad4 id="17">  2427,  2428,  2434,  2433</quad4>
				<quad4 id="18">  2426,  2427,  2433,  2432</quad4>
				<quad4 id="19">  2425,  2426,  2432,  2431</quad4>
				<quad4 id="20">  2424,  2425,  2431,  2430</quad4>
				<quad4 id="21">  2423,  2424,  2430,  2429</quad4>
				<quad4 id="22">  1069,  2423,  2429,  1070</quad4>
			</surface>
		</surface_load>
		<surface_load type="fluid tangential stabilization">
			<beta lc="3">1</beta>
			<surface>
				<quad4 id="1">  1071,  1073,  1074,  1072</quad4>
				<quad4 id="2">  1073,  1075,  1076,  1074</quad4>
				<quad4 id="3">  1075,  1077,  1078,  1076</quad4>
				<quad4 id="4">  1077,  1079,  1080,  1078</quad4>
				<quad4 id="5">  1079,  1081,  1082,  1080</quad4>
				<quad4 id="6">  1081,  1083,  1084,  1082</quad4>
				<quad4 id="7">  1083,  1085,  1086,  1084</quad4>
				<quad4 id="8">  1085,  1087,  1088,  1086</quad4>
				<quad4 id="9">  1696,  1089,  1090,  1702</quad4>
				<quad4 id="10">  1695,  1696,  1702,  1701</quad4>
				<quad4 id="11">  1694,  1695,  1701,  1700</quad4>
				<quad4 id="12">  1693,  1694,  1700,  1699</quad4>
				<quad4 id="13">  1692,  1693,  1699,  1698</quad4>
				<quad4 id="14">  1691,  1692,  1698,  1697</quad4>
				<quad4 id="15">  1087,  1691,  1697,  1088</quad4>
				<quad4 id="16">  2428,  1071,  1072,  2434</quad4>
				<quad4 id="17">  2427,  2428,  2434,  2433</quad4>
				<quad4 id="18">  2426,  2427,  2433,  2432</quad4>
				<quad4 id="19">  2425,  2426,  2432,  2431</quad4>
				<quad4 id="20">  2424,  2425,  2431,  2430</quad4>
				<quad4 id="21">  2423,  2424,  2430,  2429</quad4>
				<quad4 id="22">  1069,  2423,  2429,  1070</quad4>
			</surface>
		</surface_load>
	</Loads>
	<LoadData>
		<loadcurve id="1" type="smooth">
			<point>0,0</point>
			<point>1,1</point>
		</loadcurve>
		<loadcurve id="2" type="smooth">
			<point>0,1</point>
			<point>1,1</point>
		</loadcurve>
		<loadcurve id="3" type="smooth">
			<point>0,1</point>
			<point>1,1</point>
		</loadcurve>
	</LoadData>
	<Output>
		<plotfile type="febio">
			<var type="displacement"/>
			<var type="fluid pressure"/>
			<var type="fluid acceleration"/>
			<var type="fluid dilatation"/>
			<var type="fluid rate of deformation"/>
			<var type="fluid stress"/>
			<var type="fluid velocity"/>
			<var type="fluid vorticity"/>
			<var type="velocity"/>
			<var type="nodal fluid velocity"/>
		</plotfile>
	</Output>
</febio_spec>
