<?xml version="1.0" encoding="ISO-8859-1"?>
<!--
Problem Description:
	Multi-scale problem with 8 element rve
Main Features:
	Multi-scale	
Secondary Features:
	
Materials:
	micro-material
Degrees of Freedom: 462
Results:
	Steps Completed: 10
	Equilibrium Iterations: 30
	Right Hand Evaluations: 40
	Siffness Reformations: 10
	Other:
		
Comments:
	
-->
<febio_spec version="2.0">
	<Module type="solid"/>
	<Control>
		<time_steps>10</time_steps>
		<step_size>0.1</step_size>
		<max_refs>15</max_refs>
		<max_ups>10</max_ups>
		<dtol>0.001</dtol>
		<etol>0.01</etol>
		<rtol>0</rtol>
		<lstol>0.9</lstol>
		<analysis type="static"/>
	</Control>
	<Globals>
		<Constants>
			<T>0</T>
			<R>0</R>
			<Fc>0</Fc>
		</Constants>
	</Globals>
	<Material>
		<material id="1" name="Material1" type="micro-material">
			<RVE>./hi01.feb</RVE>
		</material>
	</Material>
	<Geometry>
		<Nodes>
			<node id="1">-5.0000000e-001,-5.0000000e-001, 0.0000000e+000</node>
			<node id="2">-5.0000000e-001,-5.0000000e-001, 1.0000000e+000</node>
			<node id="3">-5.0000000e-001, 5.0000000e-001, 0.0000000e+000</node>
			<node id="4">-5.0000000e-001, 5.0000000e-001, 1.0000000e+000</node>
			<node id="5"> 5.0000000e-001,-5.0000000e-001, 0.0000000e+000</node>
			<node id="6"> 5.0000000e-001,-5.0000000e-001, 1.0000000e+000</node>
			<node id="7"> 5.0000000e-001, 5.0000000e-001, 0.0000000e+000</node>
			<node id="8"> 5.0000000e-001, 5.0000000e-001, 1.0000000e+000</node>
		</Nodes>
		<Elements type="hex8" mat="1" elset="Part2">
			<elem id="1">     1,     5,     7,     3,     2,     6,     8,     4</elem>
		</Elements>
	</Geometry>
	<Boundary>
		<fix bc="y">
			<node id="1"/>
			<node id="2"/>
			<node id="5"/>
			<node id="6"/>
		</fix>
		<fix bc="z">
			<node id="1"/>
			<node id="3"/>
			<node id="5"/>
			<node id="7"/>
		</fix>
		<fix bc="x">
			<node id="1"/>
			<node id="2"/>
			<node id="3"/>
			<node id="4"/>
		</fix>
		<prescribe bc="x" lc="1">
			<node id="5">1</node>
			<node id="6">1</node>
			<node id="7">1</node>
			<node id="8">1</node>
		</prescribe>
	</Boundary>
	<LoadData>
		<loadcurve id="1" type="smooth">
			<point>0,0</point>
			<point>1,1</point>
		</loadcurve>
	</LoadData>
	<Output>
		<plotfile type="febio">
			<var type="displacement"/>
			<var type="stress"/>
		</plotfile>
		<logfile>
			<element_data data="sx"></element_data>
		</logfile>
	</Output>
</febio_spec>
