<?xml version="1.0" encoding="ISO-8859-1"?>
<!--
Problem Description:
	Heat transfer problem as described in tutorial 7 in the PreView user's manual.
Main Features:
	Heat transfer
Secondary Features:
	Outputs temperature to the log file.
Materials:
	Isotropic Fourier
Degrees of Freedom: 462
Results:
	Steps Completed: 10
	Equilibrium Iterations: 0
	Right Hand Evaluations: 0
	Siffness Reformations: 10
	Other:
		Node 2 has a temperature of 854.33 at time t = 1.
Comments:
	
-->
<febio_spec version="2.0">
	<Module type="heat"/>
	<Control>
		<time_steps>10</time_steps>
		<step_size>0.1</step_size>
		<time_stepper>
			<dtmin>0.01</dtmin>
			<dtmax>0.1</dtmax>
			<max_retries>5</max_retries>
			<opt_iter>10</opt_iter>
		</time_stepper>
		<analysis type="static"/>
	</Control>
	<Globals>
		<Constants>
			<T>0</T>
			<R>0</R>
			<Fc>0</Fc>
		</Constants>
	</Globals>
	<Material>
		<material id="1" name="Material1" type="isotropic Fourier">
			<density>1</density>
			<k>0.4</k>
			<c>1</c>
		</material>
	</Material>
	<Geometry>
		<Nodes>
			<node id="1">-5.0000000e-002,-2.5000000e-002, 0.0000000e+000</node>
			<node id="2">-5.0000000e-002,-2.5000000e-002, 1.0000000e-002</node>
			<node id="3">-5.0000000e-002,-2.0000000e-002, 0.0000000e+000</node>
			<node id="4">-5.0000000e-002,-2.0000000e-002, 1.0000000e-002</node>
			<node id="5">-5.0000000e-002,-1.5000000e-002, 0.0000000e+000</node>
			<node id="6">-5.0000000e-002,-1.5000000e-002, 1.0000000e-002</node>
			<node id="7">-5.0000000e-002,-1.0000000e-002, 0.0000000e+000</node>
			<node id="8">-5.0000000e-002,-1.0000000e-002, 1.0000000e-002</node>
			<node id="9">-5.0000000e-002,-5.0000000e-003, 0.0000000e+000</node>
			<node id="10">-5.0000000e-002,-5.0000000e-003, 1.0000000e-002</node>
			<node id="11">-5.0000000e-002, 1.7347235e-018, 0.0000000e+000</node>
			<node id="12">-5.0000000e-002, 1.7347235e-018, 1.0000000e-002</node>
			<node id="13">-5.0000000e-002, 5.0000000e-003, 0.0000000e+000</node>
			<node id="14">-5.0000000e-002, 5.0000000e-003, 1.0000000e-002</node>
			<node id="15">-5.0000000e-002, 1.0000000e-002, 0.0000000e+000</node>
			<node id="16">-5.0000000e-002, 1.0000000e-002, 1.0000000e-002</node>
			<node id="17">-5.0000000e-002, 1.5000000e-002, 0.0000000e+000</node>
			<node id="18">-5.0000000e-002, 1.5000000e-002, 1.0000000e-002</node>
			<node id="19">-5.0000000e-002, 2.0000000e-002, 0.0000000e+000</node>
			<node id="20">-5.0000000e-002, 2.0000000e-002, 1.0000000e-002</node>
<!-- ... 442 like lines cut -->
		</Nodes>
		<Elements type="hex8" mat="1">
			<elem id="1">     1,    23,    25,     3,     2,    24,    26,     4</elem>
			<elem id="2">     3,    25,    27,     5,     4,    26,    28,     6</elem>
			<elem id="3">     5,    27,    29,     7,     6,    28,    30,     8</elem>
			<elem id="4">     7,    29,    31,     9,     8,    30,    32,    10</elem>
			<elem id="5">     9,    31,    33,    11,    10,    32,    34,    12</elem>
			<elem id="6">    11,    33,    35,    13,    12,    34,    36,    14</elem>
			<elem id="7">    13,    35,    37,    15,    14,    36,    38,    16</elem>
			<elem id="8">    15,    37,    39,    17,    16,    38,    40,    18</elem>
			<elem id="9">    17,    39,    41,    19,    18,    40,    42,    20</elem>
			<elem id="10">    19,    41,    43,    21,    20,    42,    44,    22</elem>
			<elem id="11">    23,    45,    47,    25,    24,    46,    48,    26</elem>
			<elem id="12">    25,    47,    49,    27,    26,    48,    50,    28</elem>
			<elem id="13">    27,    49,    51,    29,    28,    50,    52,    30</elem>
			<elem id="14">    29,    51,    53,    31,    30,    52,    54,    32</elem>
			<elem id="15">    31,    53,    55,    33,    32,    54,    56,    34</elem>
			<elem id="16">    33,    55,    57,    35,    34,    56,    58,    36</elem>
			<elem id="17">    35,    57,    59,    37,    36,    58,    60,    38</elem>
			<elem id="18">    37,    59,    61,    39,    38,    60,    62,    40</elem>
			<elem id="19">    39,    61,    63,    41,    40,    62,    64,    42</elem>
			<elem id="20">    41,    63,    65,    43,    42,    64,    66,    44</elem>
<!-- ... 180 like lines cut -->
		</Elements>
		<Surface name="surface01">
			<quad4 id="1" >   461,   439,   440,   462</quad4>
			<quad4 id="2" >   439,   417,   418,   440</quad4>
			<quad4 id="3" >   417,   395,   396,   418</quad4>
			<quad4 id="4" >   395,   373,   374,   396</quad4>
			<quad4 id="5" >   373,   351,   352,   374</quad4>
			<quad4 id="6" >   351,   329,   330,   352</quad4>
			<quad4 id="7" >   329,   307,   308,   330</quad4>
			<quad4 id="8" >   307,   285,   286,   308</quad4>
			<quad4 id="9" >   285,   263,   264,   286</quad4>
			<quad4 id="10">   263,   241,   242,   264</quad4>
			<quad4 id="11">   241,   219,   220,   242</quad4>
			<quad4 id="12">   219,   197,   198,   220</quad4>
			<quad4 id="13">   197,   175,   176,   198</quad4>
			<quad4 id="14">   175,   153,   154,   176</quad4>
			<quad4 id="15">   153,   131,   132,   154</quad4>
			<quad4 id="16">   131,   109,   110,   132</quad4>
			<quad4 id="17">   109,    87,    88,   110</quad4>
			<quad4 id="18">    87,    65,    66,    88</quad4>
			<quad4 id="19">    65,    43,    44,    66</quad4>
			<quad4 id="20">    43,    21,    22,    44</quad4>
		</Surface>		
		<Surface name="surface02">
			<quad4 id="1">    21,    19,    20,    22</quad4>
			<quad4 id="2">    19,    17,    18,    20</quad4>
			<quad4 id="3">    17,    15,    16,    18</quad4>
			<quad4 id="4">    15,    13,    14,    16</quad4>
			<quad4 id="5">    13,    11,    12,    14</quad4>
			<quad4 id="6">    11,     9,    10,    12</quad4>
			<quad4 id="7">     9,     7,     8,    10</quad4>
			<quad4 id="8">     7,     5,     6,     8</quad4>
			<quad4 id="9">     5,     3,     4,     6</quad4>
			<quad4 id="10">     3,     1,     2,     4</quad4>
		</Surface>
	</Geometry>
	<Boundary>
		<prescribe bc="t" lc="4">
			<node id="441">1</node>
			<node id="442">1</node>
			<node id="443">1</node>
			<node id="444">1</node>
			<node id="445">1</node>
			<node id="446">1</node>
			<node id="447">1</node>
			<node id="448">1</node>
			<node id="449">1</node>
			<node id="450">1</node>
			<node id="451">1</node>
			<node id="452">1</node>
			<node id="453">1</node>
			<node id="454">1</node>
			<node id="455">1</node>
			<node id="456">1</node>
			<node id="457">1</node>
			<node id="458">1</node>
			<node id="459">1</node>
			<node id="460">1</node>
			<node id="461">1</node>
			<node id="462">1</node>
		</prescribe>
	</Boundary>
	<Loads>
		<surface_load type="heatflux">
			<flux lc="2">1.0</flux>
			<surface set="surface02"/>
		</surface_load>
		<surface_load type="convective_heatflux">
			<Ta lc="3">25</Ta>
			<hc>60</hc>
			<surface set="surface01"/>
		</surface_load>
		<body_load type="heat_source">
			<Q lc="1">135300</Q>
		</body_load>
	</Loads>
	<LoadData>
		<loadcurve id="1" type="smooth">
			<loadpoint>0,0</loadpoint>
			<loadpoint>1,1</loadpoint>
		</loadcurve>
		<loadcurve id="2" type="smooth">
			<loadpoint>0,0</loadpoint>
			<loadpoint>1,3500</loadpoint>
		</loadcurve>
		<loadcurve id="3" type="smooth">
			<loadpoint>0,0</loadpoint>
			<loadpoint>1,1</loadpoint>
		</loadcurve>
		<loadcurve id="4" type="smooth">
			<loadpoint>0,0</loadpoint>
			<loadpoint>1,25</loadpoint>
		</loadcurve>
	</LoadData>
	<Output>
		<plotfile type="febio">
			<var type="temperature"/>
			<var type="heat flux"/>
		</plotfile>
		<logfile>
			<node_data data="T">2</node_data>
		</logfile>
	</Output>
</febio_spec>
