<?xml version="1.0" encoding="ISO-8859-1"?>
<!--
Problem Description:
	An 8x4x4 element block has its left end nodes constrained in x,y,z and its right end
	nodes constrained in y,z with a prescribed displacement of 1 unit in the x-direction.
Main Features:
	Ogden material
Secondary Features:
	
Materials:
	Ogden
Degrees of Freedom: 550
Results:
	Steps Completed: 12
	Equilibrium Iterations: 101
	Right Hand Evaluations: 129
	Siffness Reformations: 14
	Other:
		The y and z displacement is not as uniform as is it for the Mooney-Rivlin
		material in problem mi09, but ranges from 0.0844 and 0.141 at time t=1.
Comments:
	
-->
<febio_spec version="2.0">
	<Control>
		<title>Ogden Material</title>
		<time_steps>10</time_steps>
		<step_size>0.1</step_size>
		<max_refs>15</max_refs>
		<max_ups>10</max_ups>
		<dtol>0.001</dtol>
		<etol>0.01</etol>
		<rtol>0</rtol>
		<lstol>0.9</lstol>
		<time_stepper>
			<dtmin>0.01</dtmin>
			<dtmax>0.1</dtmax>
			<max_retries>5</max_retries>
			<opt_iter>10</opt_iter>
		</time_stepper>
		<analysis type="static"/>
	</Control>
	<Globals>
		<Constants>
			<T>0</T>
			<R>0</R>
			<Fc>0</Fc>
		</Constants>
	</Globals>
	<Material>
		<material id="1" name="Material 1" type="Ogden">
			<density>1</density>
			<k>1000</k>
			<c1>0.658</c1>
			<c2>0</c2>
			<c3>0</c3>
			<c4>0</c4>
			<c5>0</c5>
			<c6>0</c6>
			<m1>6.83</m1>
			<m2>1</m2>
			<m3>1</m3>
			<m4>1</m4>
			<m5>1</m5>
			<m6>1</m6>
		</material>
	</Material>
	<Geometry>
		<Nodes>
			<node id="1">-1.0000000e+000,-5.0000000e-001, 0.0000000e+000</node>
			<node id="2">-1.0000000e+000,-5.0000000e-001, 2.5000000e-001</node>
			<node id="3">-1.0000000e+000,-5.0000000e-001, 5.0000000e-001</node>
			<node id="4">-1.0000000e+000,-5.0000000e-001, 7.5000000e-001</node>
			<node id="5">-1.0000000e+000,-5.0000000e-001, 1.0000000e+000</node>
			<node id="6">-1.0000000e+000,-2.5000000e-001, 0.0000000e+000</node>
			<node id="7">-1.0000000e+000,-2.5000000e-001, 2.5000000e-001</node>
			<node id="8">-1.0000000e+000,-2.5000000e-001, 5.0000000e-001</node>
			<node id="9">-1.0000000e+000,-2.5000000e-001, 7.5000000e-001</node>
			<node id="10">-1.0000000e+000,-2.5000000e-001, 1.0000000e+000</node>
			<node id="11">-1.0000000e+000, 0.0000000e+000, 0.0000000e+000</node>
			<node id="12">-1.0000000e+000, 0.0000000e+000, 2.5000000e-001</node>
			<node id="13">-1.0000000e+000, 0.0000000e+000, 5.0000000e-001</node>
			<node id="14">-1.0000000e+000, 0.0000000e+000, 7.5000000e-001</node>
			<node id="15">-1.0000000e+000, 0.0000000e+000, 1.0000000e+000</node>
			<node id="16">-1.0000000e+000, 2.5000000e-001, 0.0000000e+000</node>
			<node id="17">-1.0000000e+000, 2.5000000e-001, 2.5000000e-001</node>
			<node id="18">-1.0000000e+000, 2.5000000e-001, 5.0000000e-001</node>
			<node id="19">-1.0000000e+000, 2.5000000e-001, 7.5000000e-001</node>
			<node id="20">-1.0000000e+000, 2.5000000e-001, 1.0000000e+000</node>
<!-- ... 205 like lines cut -->
		</Nodes>
		<Elements type="hex8" mat="1" elset="Part2">
			<elem id="1">     1,    26,    31,     6,     2,    27,    32,     7</elem>
			<elem id="2">     2,    27,    32,     7,     3,    28,    33,     8</elem>
			<elem id="3">     3,    28,    33,     8,     4,    29,    34,     9</elem>
			<elem id="4">     4,    29,    34,     9,     5,    30,    35,    10</elem>
			<elem id="5">     6,    31,    36,    11,     7,    32,    37,    12</elem>
			<elem id="6">     7,    32,    37,    12,     8,    33,    38,    13</elem>
			<elem id="7">     8,    33,    38,    13,     9,    34,    39,    14</elem>
			<elem id="8">     9,    34,    39,    14,    10,    35,    40,    15</elem>
			<elem id="9">    11,    36,    41,    16,    12,    37,    42,    17</elem>
			<elem id="10">    12,    37,    42,    17,    13,    38,    43,    18</elem>
			<elem id="11">    13,    38,    43,    18,    14,    39,    44,    19</elem>
			<elem id="12">    14,    39,    44,    19,    15,    40,    45,    20</elem>
			<elem id="13">    16,    41,    46,    21,    17,    42,    47,    22</elem>
			<elem id="14">    17,    42,    47,    22,    18,    43,    48,    23</elem>
			<elem id="15">    18,    43,    48,    23,    19,    44,    49,    24</elem>
			<elem id="16">    19,    44,    49,    24,    20,    45,    50,    25</elem>
			<elem id="17">    26,    51,    56,    31,    27,    52,    57,    32</elem>
			<elem id="18">    27,    52,    57,    32,    28,    53,    58,    33</elem>
			<elem id="19">    28,    53,    58,    33,    29,    54,    59,    34</elem>
			<elem id="20">    29,    54,    59,    34,    30,    55,    60,    35</elem>
<!-- ... 108 like lines cut -->
		</Elements>
	</Geometry>
	<Boundary>
		<fix bc="z">
			<node id="1"/>
			<node id="2"/>
			<node id="3"/>
			<node id="4"/>
			<node id="5"/>
			<node id="6"/>
			<node id="7"/>
			<node id="8"/>
			<node id="9"/>
			<node id="10"/>
			<node id="11"/>
			<node id="12"/>
			<node id="13"/>
			<node id="14"/>
			<node id="15"/>
			<node id="16"/>
			<node id="17"/>
			<node id="18"/>
			<node id="19"/>
			<node id="20"/>
<!-- ... 30 like lines cut -->
		</fix>
		<fix bc="y">
			<node id="1"/>
			<node id="2"/>
			<node id="3"/>
			<node id="4"/>
			<node id="5"/>
			<node id="6"/>
			<node id="7"/>
			<node id="8"/>
			<node id="9"/>
			<node id="10"/>
			<node id="11"/>
			<node id="12"/>
			<node id="13"/>
			<node id="14"/>
			<node id="15"/>
			<node id="16"/>
			<node id="17"/>
			<node id="18"/>
			<node id="19"/>
			<node id="20"/>
<!-- ... 30 like lines cut -->
		</fix>
		<fix bc="x">
			<node id="1"/>
			<node id="2"/>
			<node id="3"/>
			<node id="4"/>
			<node id="5"/>
			<node id="6"/>
			<node id="7"/>
			<node id="8"/>
			<node id="9"/>
			<node id="10"/>
			<node id="11"/>
			<node id="12"/>
			<node id="13"/>
			<node id="14"/>
			<node id="15"/>
			<node id="16"/>
			<node id="17"/>
			<node id="18"/>
			<node id="19"/>
			<node id="20"/>
<!-- ... 5 like lines cut -->
		</fix>
		<prescribe bc="x" lc="1">
			<node id="201">1</node>
			<node id="202">1</node>
			<node id="203">1</node>
			<node id="204">1</node>
			<node id="205">1</node>
			<node id="206">1</node>
			<node id="207">1</node>
			<node id="208">1</node>
			<node id="209">1</node>
			<node id="210">1</node>
			<node id="211">1</node>
			<node id="212">1</node>
			<node id="213">1</node>
			<node id="214">1</node>
			<node id="215">1</node>
			<node id="216">1</node>
			<node id="217">1</node>
			<node id="218">1</node>
			<node id="219">1</node>
			<node id="220">1</node>
<!-- ... 5 like lines cut -->
		</prescribe>
	</Boundary>
	<LoadData>
		<loadcurve id="1" type="linear">
			<loadpoint>0,0</loadpoint>
			<loadpoint>1,1</loadpoint>
		</loadcurve>
	</LoadData>
	<Output>
		<plotfile type="febio"></plotfile>
		<logfile>
			<element_data data="sy">123</element_data>
		</logfile>
	</Output>
</febio_spec>
