<?xml version="1.0" encoding="ISO-8859-1"?>
<!--
Problem Description:
	Modeling of ligament cyclic Stress Relaxation.
Main Features:
	Uncoupled viscoelasticity
	Fiber material
Secondary Features:
	Cyclic deformation
	Must points
Materials:
	Trans-Iso Mooney-Rivlin
	Uncoupled Viscoelastic
Degrees of Freedom: 540
Results:
	Steps Completed: 199
	Equilibrium Iterations: 571
	Right Hand Evaluations: 770
	Siffness Reformations: 199
	Other:
		See the stress-strain curve in ma07.jpg
Comments:
	This problem is from the article "Finite element implementation of anisotropic
	quasilinear viscoelasticity using a discrete spectrum approximation", Puso and Weiss,
	Journal of Biomechanical Engineering, 1997
-->
<febio_spec version="2.0">
	<Module type="solid"/>
	<Control>
		<title>Viscoelastic Cyclic Stress</title>
		<time_steps>200</time_steps>
		<step_size>0.5</step_size>
		<max_refs>15</max_refs>
		<max_ups>10</max_ups>
		<dtol>0.001</dtol>
		<etol>0.01</etol>
		<rtol>0</rtol>
		<lstol>0.9</lstol>
		<time_stepper>
			<dtmin>0.01</dtmin>
			<dtmax lc="1"></dtmax>
			<max_retries>5</max_retries>
			<opt_iter>100</opt_iter>
		</time_stepper>
		<analysis type="static"/>
	</Control>
	<Globals>
		<Constants>
			<T>0</T>
			<R>0</R>
			<Fc>0</Fc>
		</Constants>
	</Globals>
	<Material>
		<material id="1" name="Material1" type="uncoupled viscoelastic">
			<g1>0.288</g1>
			<g2>0.288</g2>
			<g3>0.288</g3>
			<g4>0.288</g4>
			<g5>0.288</g5>
			<t1>0.01</t1>
			<t2>0.1</t2>
			<t3>1</t3>
			<t4>10</t4>
			<t5>100</t5>
			<elastic id="2" name="Material2" type="trans iso Mooney-Rivlin">
				<fiber type="vector"> 0.0000000e+000, 1.0000000e+000, 0.0000000e+000</fiber>
				<c1>47.93</c1>
				<c2>-40.46</c2>
				<c3>2.36</c3>
				<c4>76.9</c4>
				<c5>1584</c5>
				<k>5000</k>
				<lam_max>1.03</lam_max>
			</elastic>
		</material>
	</Material>
	<Geometry>
		<Nodes>
			<node id="1">-5.0000000e-001,-5.0000000e-001, 0.0000000e+000</node>
			<node id="2">-5.0000000e-001,-5.0000000e-001, 2.0000000e-001</node>
			<node id="3">-5.0000000e-001,-5.0000000e-001, 4.0000000e-001</node>
			<node id="4">-5.0000000e-001,-5.0000000e-001, 6.0000000e-001</node>
			<node id="5">-5.0000000e-001,-5.0000000e-001, 8.0000000e-001</node>
			<node id="6">-5.0000000e-001,-5.0000000e-001, 1.0000000e+000</node>
			<node id="7">-5.0000000e-001,-3.0000000e-001, 0.0000000e+000</node>
			<node id="8">-5.0000000e-001,-3.0000000e-001, 2.0000000e-001</node>
			<node id="9">-5.0000000e-001,-3.0000000e-001, 4.0000000e-001</node>
			<node id="10">-5.0000000e-001,-3.0000000e-001, 6.0000000e-001</node>
			<node id="11">-5.0000000e-001,-3.0000000e-001, 8.0000000e-001</node>
			<node id="12">-5.0000000e-001,-3.0000000e-001, 1.0000000e+000</node>
			<node id="13">-5.0000000e-001,-1.0000000e-001, 0.0000000e+000</node>
			<node id="14">-5.0000000e-001,-1.0000000e-001, 2.0000000e-001</node>
			<node id="15">-5.0000000e-001,-1.0000000e-001, 4.0000000e-001</node>
			<node id="16">-5.0000000e-001,-1.0000000e-001, 6.0000000e-001</node>
			<node id="17">-5.0000000e-001,-1.0000000e-001, 8.0000000e-001</node>
			<node id="18">-5.0000000e-001,-1.0000000e-001, 1.0000000e+000</node>
			<node id="19">-5.0000000e-001, 1.0000000e-001, 0.0000000e+000</node>
			<node id="20">-5.0000000e-001, 1.0000000e-001, 2.0000000e-001</node>
<!-- ... 196 like lines cut -->
		</Nodes>
		<Elements type="hex8" mat="1" elset="Part7">
			<elem id="1">     1,    37,    43,     7,     2,    38,    44,     8</elem>
			<elem id="2">     2,    38,    44,     8,     3,    39,    45,     9</elem>
			<elem id="3">     3,    39,    45,     9,     4,    40,    46,    10</elem>
			<elem id="4">     4,    40,    46,    10,     5,    41,    47,    11</elem>
			<elem id="5">     5,    41,    47,    11,     6,    42,    48,    12</elem>
			<elem id="6">     7,    43,    49,    13,     8,    44,    50,    14</elem>
			<elem id="7">     8,    44,    50,    14,     9,    45,    51,    15</elem>
			<elem id="8">     9,    45,    51,    15,    10,    46,    52,    16</elem>
			<elem id="9">    10,    46,    52,    16,    11,    47,    53,    17</elem>
			<elem id="10">    11,    47,    53,    17,    12,    48,    54,    18</elem>
			<elem id="11">    13,    49,    55,    19,    14,    50,    56,    20</elem>
			<elem id="12">    14,    50,    56,    20,    15,    51,    57,    21</elem>
			<elem id="13">    15,    51,    57,    21,    16,    52,    58,    22</elem>
			<elem id="14">    16,    52,    58,    22,    17,    53,    59,    23</elem>
			<elem id="15">    17,    53,    59,    23,    18,    54,    60,    24</elem>
			<elem id="16">    19,    55,    61,    25,    20,    56,    62,    26</elem>
			<elem id="17">    20,    56,    62,    26,    21,    57,    63,    27</elem>
			<elem id="18">    21,    57,    63,    27,    22,    58,    64,    28</elem>
			<elem id="19">    22,    58,    64,    28,    23,    59,    65,    29</elem>
			<elem id="20">    23,    59,    65,    29,    24,    60,    66,    30</elem>
<!-- ... 105 like lines cut -->
		</Elements>
	</Geometry>
	<Boundary>
		<fix bc="y">
			<node id="1"/>
			<node id="2"/>
			<node id="3"/>
			<node id="4"/>
			<node id="5"/>
			<node id="6"/>
			<node id="37"/>
			<node id="38"/>
			<node id="39"/>
			<node id="40"/>
			<node id="41"/>
			<node id="42"/>
			<node id="73"/>
			<node id="74"/>
			<node id="75"/>
			<node id="76"/>
			<node id="77"/>
			<node id="78"/>
			<node id="109"/>
			<node id="110"/>
<!-- ... 16 like lines cut -->
		</fix>
		<fix bc="x">
			<node id="1"/>
			<node id="2"/>
			<node id="3"/>
			<node id="4"/>
			<node id="5"/>
			<node id="6"/>
			<node id="7"/>
			<node id="8"/>
			<node id="9"/>
			<node id="10"/>
			<node id="11"/>
			<node id="12"/>
			<node id="13"/>
			<node id="14"/>
			<node id="15"/>
			<node id="16"/>
			<node id="17"/>
			<node id="18"/>
			<node id="19"/>
			<node id="20"/>
<!-- ... 16 like lines cut -->
		</fix>
		<fix bc="z">
			<node id="1"/>
			<node id="7"/>
			<node id="13"/>
			<node id="19"/>
			<node id="25"/>
			<node id="31"/>
			<node id="37"/>
			<node id="43"/>
			<node id="49"/>
			<node id="55"/>
			<node id="61"/>
			<node id="67"/>
			<node id="73"/>
			<node id="79"/>
			<node id="85"/>
			<node id="91"/>
			<node id="97"/>
			<node id="103"/>
			<node id="109"/>
			<node id="115"/>
<!-- ... 16 like lines cut -->
		</fix>
		<prescribe bc="y" lc="2">
			<node id="31">1</node>
			<node id="32">1</node>
			<node id="33">1</node>
			<node id="34">1</node>
			<node id="35">1</node>
			<node id="36">1</node>
			<node id="67">1</node>
			<node id="68">1</node>
			<node id="69">1</node>
			<node id="70">1</node>
			<node id="71">1</node>
			<node id="72">1</node>
			<node id="103">1</node>
			<node id="104">1</node>
			<node id="105">1</node>
			<node id="106">1</node>
			<node id="107">1</node>
			<node id="108">1</node>
			<node id="139">1</node>
			<node id="140">1</node>
<!-- ... 16 like lines cut -->
		</prescribe>
	</Boundary>
	<LoadData>
		<loadcurve id="1" type="step">
			<loadpoint>0,0.5</loadpoint>
			<loadpoint>5,0.5</loadpoint>
			<loadpoint>10,0.5</loadpoint>
			<loadpoint>15,0.5</loadpoint>
			<loadpoint>20,0.5</loadpoint>
			<loadpoint>25,0.5</loadpoint>
			<loadpoint>30,0.5</loadpoint>
			<loadpoint>35,0.5</loadpoint>
			<loadpoint>40,0.5</loadpoint>
			<loadpoint>45,0.5</loadpoint>
			<loadpoint>50,0.5</loadpoint>
			<loadpoint>55,0.5</loadpoint>
			<loadpoint>60,0.5</loadpoint>
			<loadpoint>65,0.5</loadpoint>
			<loadpoint>70,0.5</loadpoint>
			<loadpoint>75,0.5</loadpoint>
			<loadpoint>80,0.5</loadpoint>
			<loadpoint>85,0.5</loadpoint>
			<loadpoint>90,0.5</loadpoint>
			<loadpoint>95,0.5</loadpoint>
			<loadpoint>100,0.5</loadpoint>
		</loadcurve>
		<loadcurve id="2" type="linear">
			<loadpoint>0,0</loadpoint>
			<loadpoint>5,0.03</loadpoint>
			<loadpoint>10,0.015</loadpoint>
			<loadpoint>15,0.03</loadpoint>
			<loadpoint>20,0.015</loadpoint>
			<loadpoint>25,0.03</loadpoint>
			<loadpoint>30,0.015</loadpoint>
			<loadpoint>35,0.03</loadpoint>
			<loadpoint>40,0.015</loadpoint>
			<loadpoint>45,0.03</loadpoint>
			<loadpoint>50,0.015</loadpoint>
			<loadpoint>55,0.03</loadpoint>
			<loadpoint>60,0.015</loadpoint>
			<loadpoint>65,0.03</loadpoint>
			<loadpoint>70,0.015</loadpoint>
			<loadpoint>75,0.03</loadpoint>
			<loadpoint>80,0.015</loadpoint>
			<loadpoint>85,0.03</loadpoint>
			<loadpoint>90,0.015</loadpoint>
			<loadpoint>95,0.03</loadpoint>
			<loadpoint>100,0.015</loadpoint>
		</loadcurve>
	</LoadData>
	<Output>
		<plotfile type="febio"></plotfile>
		<logfile>
			<element_data data="s3">73</element_data>
		</logfile>	
	</Output>
</febio_spec>
