<?xml version="1.0" encoding="ISO-8859-1"?>
<!--
Problem Description:
	An elastic cylindrical section with quarter symmetry is subject to a pressure
	that varies between 0 at time t=0 to 0.5 at time t=1.
Main Features:
	Pressure
Secondary Features:
	
Materials:
	Holmes-Mow
Degrees of Freedom: 672
Results:
	Steps Completed: 10
	Equilibrium Iterations: 43
	Right Hand Evaluations: 58
	Siffness Reformations: 43
	Other:
		The cylinder has a maximum Effective strain of 1.95 at time t=1.
Comments:
	This problem can be compared to ma10, which uses a poroelastic material.
-->
<febio_spec version="2.0">
	<Module type="solid"/>
	<Control>
		<title>Inflated Tube - Elastic</title>
		<time_steps>10</time_steps>
		<step_size>0.1</step_size>
		<max_refs>20</max_refs>
		<max_ups>0</max_ups>
		<dtol>0.001</dtol>
		<etol>0.01</etol>
		<rtol>0</rtol>
		<lstol>0.9</lstol>
		<time_stepper>
			<dtmin>0.01</dtmin>
			<dtmax lc="1"></dtmax>
			<max_retries>5</max_retries>
			<opt_iter>10</opt_iter>
		</time_stepper>
		<analysis type="static"/>
	</Control>
	<Globals>
		<Constants>
			<T>0</T>
			<R>0</R>
			<Fc>0</Fc>
		</Constants>
	</Globals>
	<Material>
		<material id="1" name="Solid Matrix" type="Holmes-Mow">
			<density>1</density>
			<E>1</E>
			<v>0</v>
			<beta>0.5</beta>
		</material>
	</Material>
	<Geometry>
		<Nodes>
			<node id="1"> 5.0000000e-001, 0.0000000e+000, 0.0000000e+000</node>
			<node id="2"> 5.0963069e-001, 0.0000000e+000, 0.0000000e+000</node>
			<node id="3"> 5.2118752e-001, 0.0000000e+000, 0.0000000e+000</node>
			<node id="4"> 5.3505571e-001, 0.0000000e+000, 0.0000000e+000</node>
			<node id="5"> 5.5169754e-001, 0.0000000e+000, 0.0000000e+000</node>
			<node id="6"> 5.7166774e-001, 0.0000000e+000, 0.0000000e+000</node>
			<node id="7"> 5.9563197e-001, 0.0000000e+000, 0.0000000e+000</node>
			<node id="8"> 6.2438906e-001, 0.0000000e+000, 0.0000000e+000</node>
			<node id="9"> 6.5889756e-001, 0.0000000e+000, 0.0000000e+000</node>
			<node id="10"> 7.0030776e-001, 0.0000000e+000, 0.0000000e+000</node>
			<node id="11"> 7.5000000e-001, 0.0000000e+000, 0.0000000e+000</node>
			<node id="12"> 7.9969224e-001, 0.0000000e+000, 0.0000000e+000</node>
			<node id="13"> 8.4110244e-001, 0.0000000e+000, 0.0000000e+000</node>
			<node id="14"> 8.7561094e-001, 0.0000000e+000, 0.0000000e+000</node>
			<node id="15"> 9.0436803e-001, 0.0000000e+000, 0.0000000e+000</node>
			<node id="16"> 9.2833226e-001, 0.0000000e+000, 0.0000000e+000</node>
			<node id="17"> 9.4830246e-001, 0.0000000e+000, 0.0000000e+000</node>
			<node id="18"> 9.6494429e-001, 0.0000000e+000, 0.0000000e+000</node>
			<node id="19"> 9.7881248e-001, 0.0000000e+000, 0.0000000e+000</node>
			<node id="20"> 9.9036931e-001, 0.0000000e+000, 0.0000000e+000</node>
<!-- ... 358 like lines cut -->
		</Nodes>
		<Elements type="hex8" mat="1" elset="Part8">
			<elem id="1">     1,     2,    23,    22,   190,   191,   212,   211</elem>
			<elem id="2">     2,     3,    24,    23,   191,   192,   213,   212</elem>
			<elem id="3">     3,     4,    25,    24,   192,   193,   214,   213</elem>
			<elem id="4">     4,     5,    26,    25,   193,   194,   215,   214</elem>
			<elem id="5">     5,     6,    27,    26,   194,   195,   216,   215</elem>
			<elem id="6">     6,     7,    28,    27,   195,   196,   217,   216</elem>
			<elem id="7">     7,     8,    29,    28,   196,   197,   218,   217</elem>
			<elem id="8">     8,     9,    30,    29,   197,   198,   219,   218</elem>
			<elem id="9">     9,    10,    31,    30,   198,   199,   220,   219</elem>
			<elem id="10">    10,    11,    32,    31,   199,   200,   221,   220</elem>
			<elem id="11">    11,    12,    33,    32,   200,   201,   222,   221</elem>
			<elem id="12">    12,    13,    34,    33,   201,   202,   223,   222</elem>
			<elem id="13">    13,    14,    35,    34,   202,   203,   224,   223</elem>
			<elem id="14">    14,    15,    36,    35,   203,   204,   225,   224</elem>
			<elem id="15">    15,    16,    37,    36,   204,   205,   226,   225</elem>
			<elem id="16">    16,    17,    38,    37,   205,   206,   227,   226</elem>
			<elem id="17">    17,    18,    39,    38,   206,   207,   228,   227</elem>
			<elem id="18">    18,    19,    40,    39,   207,   208,   229,   228</elem>
			<elem id="19">    19,    20,    41,    40,   208,   209,   230,   229</elem>
			<elem id="20">    20,    21,    42,    41,   209,   210,   231,   230</elem>
<!-- ... 140 like lines cut -->
		</Elements>
	</Geometry>
	<Boundary>
		<fix bc="x">
			<node id="169"/>
			<node id="170"/>
			<node id="171"/>
			<node id="172"/>
			<node id="173"/>
			<node id="174"/>
			<node id="175"/>
			<node id="176"/>
			<node id="177"/>
			<node id="178"/>
			<node id="179"/>
			<node id="180"/>
			<node id="181"/>
			<node id="182"/>
			<node id="183"/>
			<node id="184"/>
			<node id="185"/>
			<node id="186"/>
			<node id="187"/>
			<node id="188"/>
<!-- ... 22 like lines cut -->
		</fix>
		<fix bc="y">
			<node id="1"/>
			<node id="2"/>
			<node id="3"/>
			<node id="4"/>
			<node id="5"/>
			<node id="6"/>
			<node id="7"/>
			<node id="8"/>
			<node id="9"/>
			<node id="10"/>
			<node id="11"/>
			<node id="12"/>
			<node id="13"/>
			<node id="14"/>
			<node id="15"/>
			<node id="16"/>
			<node id="17"/>
			<node id="18"/>
			<node id="19"/>
			<node id="20"/>
<!-- ... 22 like lines cut -->
		</fix>
		<fix bc="z">
			<node id="1"/>
			<node id="2"/>
			<node id="3"/>
			<node id="4"/>
			<node id="5"/>
			<node id="6"/>
			<node id="7"/>
			<node id="8"/>
			<node id="9"/>
			<node id="10"/>
			<node id="11"/>
			<node id="12"/>
			<node id="13"/>
			<node id="14"/>
			<node id="15"/>
			<node id="16"/>
			<node id="17"/>
			<node id="18"/>
			<node id="19"/>
			<node id="20"/>
<!-- ... 358 like lines cut -->
		</fix>
	</Boundary>
	<Loads>
		<surface_load type="pressure">
			<pressure lc="2">1.0</pressure>
			<linear>0</linear>
			<surface>
				<quad4 id="1">    22,     1,   190,   211</quad4>
				<quad4 id="2">    43,    22,   211,   232</quad4>
				<quad4 id="3">    64,    43,   232,   253</quad4>
				<quad4 id="4">    85,    64,   253,   274</quad4>
				<quad4 id="5">   106,    85,   274,   295</quad4>
				<quad4 id="6">   127,   106,   295,   316</quad4>
				<quad4 id="7">   148,   127,   316,   337</quad4>
				<quad4 id="8">   169,   148,   337,   358</quad4>
			</surface>
		</surface_load>
	</Loads>
	<LoadData>
		<loadcurve id="1" type="step">
			<loadpoint>0,0</loadpoint>
			<loadpoint>1,0.1</loadpoint>
			<loadpoint>2000,100</loadpoint>
		</loadcurve>
		<loadcurve id="2" type="smooth">
			<loadpoint>0,0</loadpoint>
			<loadpoint>1,0.5</loadpoint>
		</loadcurve>
	</LoadData>
	<Output>
		<plotfile type="febio"></plotfile>
		<logfile>
			<element_data data="sy">1</element_data>
		</logfile>	
	</Output>
</febio_spec>
