<?xml version="1.0" encoding="ISO-8859-1"?>
<!--
Problem Description:
	A 5x6x5 element block undergoes a prescribed displacement of 1 unit in the z-direction.
	Nodal constraints are specified for the 1/8th symmetric representation of the expansion
	of a block in the z-direction.
Main Features:
	Fung Orthotropic material
Secondary Features:
	
Materials:
	Fung Orthotropic
Degrees of Freedom: 636
Results:
	Steps Completed: 10
	Equilibrium Iterations: 39
	Right Hand Evaluations: 49
	Siffness Reformations: 10
	Other:
		The maximum total displacement is 1.08 units at time t=1.
Comments:
	Similar to problem ma03 (linear orthotropic).
-->
<febio_spec version="2.0">
	<Module type="solid"/>
	<Control>
		<title>Fung Orthotropic Material</title>
		<time_steps>10</time_steps>
		<step_size>0.1</step_size>
		<max_refs>15</max_refs>
		<max_ups>10</max_ups>
		<dtol>0.001</dtol>
		<etol>0.01</etol>
		<rtol>0</rtol>
		<lstol>0.9</lstol>
		<time_stepper>
			<dtmin>0.01</dtmin>
			<dtmax>0.1</dtmax>
			<max_retries>5</max_retries>
			<opt_iter>10</opt_iter>
		</time_stepper>
		<analysis type="static"/>
	</Control>
	<Globals>
		<Constants>
			<T>0</T>
			<R>0</R>
			<Fc>0</Fc>
		</Constants>
	</Globals>
	<Material>
		<material id="1" name="Material 1" type="Fung orthotropic">
			<density>1</density>
			<E1>1</E1>
			<E2>1</E2>
			<E3>1</E3>
			<G12>3</G12>
			<G23>3</G23>
			<G31>3</G31>
			<v12>0.2</v12>
			<v23>0.2</v23>
			<v31>0.2</v31>
			<c>1</c>
			<k>100</k>
		</material>
	</Material>
	<Geometry>
		<Nodes>
			<node id="1">-5.0000000e-001,-5.0000000e-001, 0.0000000e+000</node>
			<node id="2">-5.0000000e-001,-5.0000000e-001, 2.0000000e-001</node>
			<node id="3">-5.0000000e-001,-5.0000000e-001, 4.0000000e-001</node>
			<node id="4">-5.0000000e-001,-5.0000000e-001, 6.0000000e-001</node>
			<node id="5">-5.0000000e-001,-5.0000000e-001, 8.0000000e-001</node>
			<node id="6">-5.0000000e-001,-5.0000000e-001, 1.0000000e+000</node>
			<node id="7">-5.0000000e-001,-3.3333333e-001, 0.0000000e+000</node>
			<node id="8">-5.0000000e-001,-3.3333333e-001, 2.0000000e-001</node>
			<node id="9">-5.0000000e-001,-3.3333333e-001, 4.0000000e-001</node>
			<node id="10">-5.0000000e-001,-3.3333333e-001, 6.0000000e-001</node>
			<node id="11">-5.0000000e-001,-3.3333333e-001, 8.0000000e-001</node>
			<node id="12">-5.0000000e-001,-3.3333333e-001, 1.0000000e+000</node>
			<node id="13">-5.0000000e-001,-1.6666667e-001, 0.0000000e+000</node>
			<node id="14">-5.0000000e-001,-1.6666667e-001, 2.0000000e-001</node>
			<node id="15">-5.0000000e-001,-1.6666667e-001, 4.0000000e-001</node>
			<node id="16">-5.0000000e-001,-1.6666667e-001, 6.0000000e-001</node>
			<node id="17">-5.0000000e-001,-1.6666667e-001, 8.0000000e-001</node>
			<node id="18">-5.0000000e-001,-1.6666667e-001, 1.0000000e+000</node>
			<node id="19">-5.0000000e-001,-5.5511151e-017, 0.0000000e+000</node>
			<node id="20">-5.0000000e-001,-5.5511151e-017, 2.0000000e-001</node>
<!-- ... 232 like lines cut -->
		</Nodes>
		<Elements type="hex8" mat="1" elset="Part9">
			<elem id="1">     1,    43,    49,     7,     2,    44,    50,     8</elem>
			<elem id="2">     2,    44,    50,     8,     3,    45,    51,     9</elem>
			<elem id="3">     3,    45,    51,     9,     4,    46,    52,    10</elem>
			<elem id="4">     4,    46,    52,    10,     5,    47,    53,    11</elem>
			<elem id="5">     5,    47,    53,    11,     6,    48,    54,    12</elem>
			<elem id="6">     7,    49,    55,    13,     8,    50,    56,    14</elem>
			<elem id="7">     8,    50,    56,    14,     9,    51,    57,    15</elem>
			<elem id="8">     9,    51,    57,    15,    10,    52,    58,    16</elem>
			<elem id="9">    10,    52,    58,    16,    11,    53,    59,    17</elem>
			<elem id="10">    11,    53,    59,    17,    12,    54,    60,    18</elem>
			<elem id="11">    13,    55,    61,    19,    14,    56,    62,    20</elem>
			<elem id="12">    14,    56,    62,    20,    15,    57,    63,    21</elem>
			<elem id="13">    15,    57,    63,    21,    16,    58,    64,    22</elem>
			<elem id="14">    16,    58,    64,    22,    17,    59,    65,    23</elem>
			<elem id="15">    17,    59,    65,    23,    18,    60,    66,    24</elem>
			<elem id="16">    19,    61,    67,    25,    20,    62,    68,    26</elem>
			<elem id="17">    20,    62,    68,    26,    21,    63,    69,    27</elem>
			<elem id="18">    21,    63,    69,    27,    22,    64,    70,    28</elem>
			<elem id="19">    22,    64,    70,    28,    23,    65,    71,    29</elem>
			<elem id="20">    23,    65,    71,    29,    24,    66,    72,    30</elem>
<!-- ... 130 like lines cut -->
		</Elements>
	</Geometry>
	<Boundary>
		<fix bc="z">
			<node id="1"/>
			<node id="7"/>
			<node id="13"/>
			<node id="19"/>
			<node id="25"/>
			<node id="31"/>
			<node id="37"/>
			<node id="43"/>
			<node id="49"/>
			<node id="55"/>
			<node id="61"/>
			<node id="67"/>
			<node id="73"/>
			<node id="79"/>
			<node id="85"/>
			<node id="91"/>
			<node id="97"/>
			<node id="103"/>
			<node id="109"/>
			<node id="115"/>
<!-- ... 22 like lines cut -->
		</fix>
		<fix bc="y">
			<node id="1"/>
			<node id="2"/>
			<node id="3"/>
			<node id="4"/>
			<node id="5"/>
			<node id="6"/>
			<node id="43"/>
			<node id="44"/>
			<node id="45"/>
			<node id="46"/>
			<node id="47"/>
			<node id="48"/>
			<node id="85"/>
			<node id="86"/>
			<node id="87"/>
			<node id="88"/>
			<node id="89"/>
			<node id="90"/>
			<node id="127"/>
			<node id="128"/>
<!-- ... 16 like lines cut -->
		</fix>
		<fix bc="x">
			<node id="1"/>
			<node id="2"/>
			<node id="3"/>
			<node id="4"/>
			<node id="5"/>
			<node id="6"/>
			<node id="7"/>
			<node id="8"/>
			<node id="9"/>
			<node id="10"/>
			<node id="11"/>
			<node id="12"/>
			<node id="13"/>
			<node id="14"/>
			<node id="15"/>
			<node id="16"/>
			<node id="17"/>
			<node id="18"/>
			<node id="19"/>
			<node id="20"/>
<!-- ... 22 like lines cut -->
		</fix>
		<prescribe bc="z" lc="1">
			<node id="6">1</node>
			<node id="12">1</node>
			<node id="18">1</node>
			<node id="24">1</node>
			<node id="30">1</node>
			<node id="36">1</node>
			<node id="42">1</node>
			<node id="48">1</node>
			<node id="54">1</node>
			<node id="60">1</node>
			<node id="66">1</node>
			<node id="72">1</node>
			<node id="78">1</node>
			<node id="84">1</node>
			<node id="90">1</node>
			<node id="96">1</node>
			<node id="102">1</node>
			<node id="108">1</node>
			<node id="114">1</node>
			<node id="120">1</node>
<!-- ... 22 like lines cut -->
		</prescribe>
	</Boundary>
	<LoadData>
		<loadcurve id="1" type="linear">
			<loadpoint>0,0</loadpoint>
			<loadpoint>1,1</loadpoint>
		</loadcurve>
	</LoadData>
	<Output>
		<plotfile type="febio"></plotfile>
		<logfile>
			<element_data data="sz">1</element_data>
		</logfile>
	</Output>
</febio_spec>
