<?xml version="1.0" encoding="ISO-8859-1"?>
<!--
Problem Description:
	Circular disk subjected to uniform tensile pressure on its
	lateral boundary.  The material is an orthotropic
	conewise linear elastic solid, with material axes rotated
	about the z-axis.
Main Features:
	Orthotropic conewise linear elastic solid
Secondary Features:
	Material directions not along coordinate axes
	Pressure
Materials:
	orthotropic CLE
Degrees of Freedom: 832
Results:
	Steps Completed: 10
	Equilibrium Iterations: 89
	Right Hand Evaluations: 99
	Siffness Reformations: 89
	Other:
		
Comments:
	The disk deforms into an ellipse whose axes are not aligned
	with the coordinate directions.
-->
<febio_spec version="2.0">
	<Module type="solid"/>
	<Control>
		<time_steps>10</time_steps>
		<step_size>0.1</step_size>
		<max_refs>15</max_refs>
		<max_ups>0</max_ups>
		<dtol>0.001</dtol>
		<etol>0.01</etol>
		<rtol>0</rtol>
		<lstol>0.9</lstol>
		<time_stepper>
			<dtmin>0.01</dtmin>
			<dtmax>0.1</dtmax>
			<max_retries>5</max_retries>
			<opt_iter>10</opt_iter>
		</time_stepper>
		<analysis type="static"/>
	</Control>
	<Globals>
		<Constants>
			<T>0</T>
			<R>0</R>
			<Fc>0</Fc>
		</Constants>
	</Globals>
	<Material>
		<material id="1" name="Orthotropic Conewise Linear Elastic Solid" type="orthotropic CLE">
			<density>1</density>
			<lp11>2</lp11>
			<lp22>1</lp22>
			<lp33>1</lp33>
			<lm11>0.2</lm11>
			<lm22>0.1</lm22>
			<lm33>0.1</lm33>
			<l12>0.1</l12>
			<l23>0.1</l23>
			<l31>0.1</l31>
			<mu1>0.2</mu1>
			<mu2>0.1</mu2>
			<mu3>0.1</mu3>
		</material>
	</Material>
	<Geometry>
		<Nodes>
			<node id="1"> -1.7677670e+00, -1.7677670e+00,  0.0000000e+00</node>
			<node id="2">  0.0000000e+00, -1.7677670e+00,  0.0000000e+00</node>
			<node id="3">  1.7677670e+00, -1.7677670e+00,  0.0000000e+00</node>
			<node id="4"> -1.7677670e+00,  0.0000000e+00,  0.0000000e+00</node>
			<node id="5">  0.0000000e+00,  0.0000000e+00,  0.0000000e+00</node>
			<node id="6">  1.7677670e+00,  0.0000000e+00,  0.0000000e+00</node>
			<node id="7"> -1.7677670e+00,  1.7677670e+00,  0.0000000e+00</node>
			<node id="8">  0.0000000e+00,  1.7677670e+00,  0.0000000e+00</node>
			<node id="9">  1.7677670e+00,  1.7677670e+00,  0.0000000e+00</node>
			<node id="10"> -1.7677670e+00, -1.7677670e+00,  1.0000000e+00</node>
			<node id="11">  0.0000000e+00, -1.7677670e+00,  1.0000000e+00</node>
			<node id="12">  1.7677670e+00, -1.7677670e+00,  1.0000000e+00</node>
			<node id="13"> -1.7677670e+00,  0.0000000e+00,  1.0000000e+00</node>
			<node id="14">  0.0000000e+00,  0.0000000e+00,  1.0000000e+00</node>
			<node id="15">  1.7677670e+00,  0.0000000e+00,  1.0000000e+00</node>
			<node id="16"> -1.7677670e+00,  1.7677670e+00,  1.0000000e+00</node>
			<node id="17">  0.0000000e+00,  1.7677670e+00,  1.0000000e+00</node>
			<node id="18">  1.7677670e+00,  1.7677670e+00,  1.0000000e+00</node>
			<node id="19"> -3.5355340e+00, -3.5355339e+00,  0.0000000e+00</node>
			<node id="20">  0.0000000e+00, -5.0000000e+00,  0.0000000e+00</node>
<!-- ... 398 like lines cut -->
		</Nodes>
		<Elements type="hex8" mat="1" elset="Part1">
			<elem id="1">     1,    35,   209,    55,    10,    40,   212,    56</elem>
			<elem id="2">    35,    36,   210,   209,    40,    39,   213,   212</elem>
			<elem id="3">    36,    37,   211,   210,    39,    38,   214,   213</elem>
			<elem id="4">    37,     2,    41,   211,    38,    11,    46,   214</elem>
			<elem id="5">    55,   209,   206,    54,    56,   212,   215,    57</elem>
			<elem id="6">   209,   210,   207,   206,   212,   213,   216,   215</elem>
			<elem id="7">   210,   211,   208,   207,   213,   214,   217,   216</elem>
			<elem id="8">   211,    41,    42,   208,   214,    46,    45,   217</elem>
			<elem id="9">    54,   206,   203,    53,    57,   215,   218,    58</elem>
			<elem id="10">   206,   207,   204,   203,   215,   216,   219,   218</elem>
			<elem id="11">   207,   208,   205,   204,   216,   217,   220,   219</elem>
			<elem id="12">   208,    42,    43,   205,   217,    45,    44,   220</elem>
			<elem id="13">    53,   203,    49,     4,    58,   218,    50,    13</elem>
			<elem id="14">   203,   204,    48,    49,   218,   219,    51,    50</elem>
			<elem id="15">   204,   205,    47,    48,   219,   220,    52,    51</elem>
			<elem id="16">   205,    43,     5,    47,   220,    44,    14,    52</elem>
			<elem id="17">     2,    59,   227,    41,    11,    64,   230,    46</elem>
			<elem id="18">    59,    60,   228,   227,    64,    63,   231,   230</elem>
			<elem id="19">    60,    61,   229,   228,    63,    62,   232,   231</elem>
			<elem id="20">    61,     3,    65,   229,    62,    12,    70,   232</elem>
<!-- ... 172 like lines cut -->
		</Elements>
		<ElementData>
			<element id="1">
				<mat_axis>
					<a>0.894427,0.447214,0</a>
					<d>-0.447214,0.894427,0</d>
				</mat_axis>
			</element>
			<element id="2">
				<mat_axis>
					<a>0.894427,0.447214,0</a>
					<d>-0.447214,0.894427,0</d>
				</mat_axis>
			</element>
			<element id="3">
				<mat_axis>
					<a>0.894427,0.447214,0</a>
					<d>-0.447214,0.894427,0</d>
				</mat_axis>
			</element>
			<element id="4">
				<mat_axis>
					<a>0.894427,0.447214,0</a>
					<d>-0.447214,0.894427,0</d>
				</mat_axis>
			</element>
			<element id="5">
				<mat_axis>
					<a>0.894427,0.447214,0</a>
					<d>-0.447214,0.894427,0</d>
				</mat_axis>
			</element>
			<element id="6">
				<mat_axis>
					<a>0.894427,0.447214,0</a>
					<d>-0.447214,0.894427,0</d>
				</mat_axis>
			</element>
			<element id="7">
				<mat_axis>
					<a>0.894427,0.447214,0</a>
					<d>-0.447214,0.894427,0</d>
				</mat_axis>
			</element>
			<element id="8">
				<mat_axis>
					<a>0.894427,0.447214,0</a>
					<d>-0.447214,0.894427,0</d>
				</mat_axis>
			</element>
			<element id="9">
				<mat_axis>
					<a>0.894427,0.447214,0</a>
					<d>-0.447214,0.894427,0</d>
				</mat_axis>
			</element>
			<element id="10">
				<mat_axis>
					<a>0.894427,0.447214,0</a>
					<d>-0.447214,0.894427,0</d>
				</mat_axis>
			</element>
			<element id="11">
				<mat_axis>
					<a>0.894427,0.447214,0</a>
					<d>-0.447214,0.894427,0</d>
				</mat_axis>
			</element>
			<element id="12">
				<mat_axis>
					<a>0.894427,0.447214,0</a>
					<d>-0.447214,0.894427,0</d>
				</mat_axis>
			</element>
			<element id="13">
				<mat_axis>
					<a>0.894427,0.447214,0</a>
					<d>-0.447214,0.894427,0</d>
				</mat_axis>
			</element>
			<element id="14">
				<mat_axis>
					<a>0.894427,0.447214,0</a>
					<d>-0.447214,0.894427,0</d>
				</mat_axis>
			</element>
			<element id="15">
				<mat_axis>
					<a>0.894427,0.447214,0</a>
					<d>-0.447214,0.894427,0</d>
				</mat_axis>
			</element>
			<element id="16">
				<mat_axis>
					<a>0.894427,0.447214,0</a>
					<d>-0.447214,0.894427,0</d>
				</mat_axis>
			</element>
			<element id="17">
				<mat_axis>
					<a>0.894427,0.447214,0</a>
					<d>-0.447214,0.894427,0</d>
				</mat_axis>
			</element>
			<element id="18">
				<mat_axis>
					<a>0.894427,0.447214,0</a>
					<d>-0.447214,0.894427,0</d>
				</mat_axis>
			</element>
			<element id="19">
				<mat_axis>
					<a>0.894427,0.447214,0</a>
					<d>-0.447214,0.894427,0</d>
				</mat_axis>
			</element>
			<element id="20">
				<mat_axis>
					<a>0.894427,0.447214,0</a>
					<d>-0.447214,0.894427,0</d>
				</mat_axis>
			</element>
			<element id="21">
				<mat_axis>
					<a>0.894427,0.447214,0</a>
					<d>-0.447214,0.894427,0</d>
				</mat_axis>
			</element>
			<element id="22">
				<mat_axis>
					<a>0.894427,0.447214,0</a>
					<d>-0.447214,0.894427,0</d>
				</mat_axis>
			</element>
			<element id="23">
				<mat_axis>
					<a>0.894427,0.447214,0</a>
					<d>-0.447214,0.894427,0</d>
				</mat_axis>
			</element>
			<element id="24">
				<mat_axis>
					<a>0.894427,0.447214,0</a>
					<d>-0.447214,0.894427,0</d>
				</mat_axis>
			</element>
			<element id="25">
				<mat_axis>
					<a>0.894427,0.447214,0</a>
					<d>-0.447214,0.894427,0</d>
				</mat_axis>
			</element>
			<element id="26">
				<mat_axis>
					<a>0.894427,0.447214,0</a>
					<d>-0.447214,0.894427,0</d>
				</mat_axis>
			</element>
			<element id="27">
				<mat_axis>
					<a>0.894427,0.447214,0</a>
					<d>-0.447214,0.894427,0</d>
				</mat_axis>
			</element>
			<element id="28">
				<mat_axis>
					<a>0.894427,0.447214,0</a>
					<d>-0.447214,0.894427,0</d>
				</mat_axis>
			</element>
			<element id="29">
				<mat_axis>
					<a>0.894427,0.447214,0</a>
					<d>-0.447214,0.894427,0</d>
				</mat_axis>
			</element>
			<element id="30">
				<mat_axis>
					<a>0.894427,0.447214,0</a>
					<d>-0.447214,0.894427,0</d>
				</mat_axis>
			</element>
			<element id="31">
				<mat_axis>
					<a>0.894427,0.447214,0</a>
					<d>-0.447214,0.894427,0</d>
				</mat_axis>
			</element>
			<element id="32">
				<mat_axis>
					<a>0.894427,0.447214,0</a>
					<d>-0.447214,0.894427,0</d>
				</mat_axis>
			</element>
			<element id="33">
				<mat_axis>
					<a>0.894427,0.447214,0</a>
					<d>-0.447214,0.894427,0</d>
				</mat_axis>
			</element>
			<element id="34">
				<mat_axis>
					<a>0.894427,0.447214,0</a>
					<d>-0.447214,0.894427,0</d>
				</mat_axis>
			</element>
			<element id="35">
				<mat_axis>
					<a>0.894427,0.447214,0</a>
					<d>-0.447214,0.894427,0</d>
				</mat_axis>
			</element>
			<element id="36">
				<mat_axis>
					<a>0.894427,0.447214,0</a>
					<d>-0.447214,0.894427,0</d>
				</mat_axis>
			</element>
			<element id="37">
				<mat_axis>
					<a>0.894427,0.447214,0</a>
					<d>-0.447214,0.894427,0</d>
				</mat_axis>
			</element>
			<element id="38">
				<mat_axis>
					<a>0.894427,0.447214,0</a>
					<d>-0.447214,0.894427,0</d>
				</mat_axis>
			</element>
			<element id="39">
				<mat_axis>
					<a>0.894427,0.447214,0</a>
					<d>-0.447214,0.894427,0</d>
				</mat_axis>
			</element>
			<element id="40">
				<mat_axis>
					<a>0.894427,0.447214,0</a>
					<d>-0.447214,0.894427,0</d>
				</mat_axis>
			</element>
			<element id="41">
				<mat_axis>
					<a>0.894427,0.447214,0</a>
					<d>-0.447214,0.894427,0</d>
				</mat_axis>
			</element>
			<element id="42">
				<mat_axis>
					<a>0.894427,0.447214,0</a>
					<d>-0.447214,0.894427,0</d>
				</mat_axis>
			</element>
			<element id="43">
				<mat_axis>
					<a>0.894427,0.447214,0</a>
					<d>-0.447214,0.894427,0</d>
				</mat_axis>
			</element>
			<element id="44">
				<mat_axis>
					<a>0.894427,0.447214,0</a>
					<d>-0.447214,0.894427,0</d>
				</mat_axis>
			</element>
			<element id="45">
				<mat_axis>
					<a>0.894427,0.447214,0</a>
					<d>-0.447214,0.894427,0</d>
				</mat_axis>
			</element>
			<element id="46">
				<mat_axis>
					<a>0.894427,0.447214,0</a>
					<d>-0.447214,0.894427,0</d>
				</mat_axis>
			</element>
			<element id="47">
				<mat_axis>
					<a>0.894427,0.447214,0</a>
					<d>-0.447214,0.894427,0</d>
				</mat_axis>
			</element>
			<element id="48">
				<mat_axis>
					<a>0.894427,0.447214,0</a>
					<d>-0.447214,0.894427,0</d>
				</mat_axis>
			</element>
			<element id="49">
				<mat_axis>
					<a>0.894427,0.447214,0</a>
					<d>-0.447214,0.894427,0</d>
				</mat_axis>
			</element>
			<element id="50">
				<mat_axis>
					<a>0.894427,0.447214,0</a>
					<d>-0.447214,0.894427,0</d>
				</mat_axis>
			</element>
			<element id="51">
				<mat_axis>
					<a>0.894427,0.447214,0</a>
					<d>-0.447214,0.894427,0</d>
				</mat_axis>
			</element>
			<element id="52">
				<mat_axis>
					<a>0.894427,0.447214,0</a>
					<d>-0.447214,0.894427,0</d>
				</mat_axis>
			</element>
			<element id="53">
				<mat_axis>
					<a>0.894427,0.447214,0</a>
					<d>-0.447214,0.894427,0</d>
				</mat_axis>
			</element>
			<element id="54">
				<mat_axis>
					<a>0.894427,0.447214,0</a>
					<d>-0.447214,0.894427,0</d>
				</mat_axis>
			</element>
			<element id="55">
				<mat_axis>
					<a>0.894427,0.447214,0</a>
					<d>-0.447214,0.894427,0</d>
				</mat_axis>
			</element>
			<element id="56">
				<mat_axis>
					<a>0.894427,0.447214,0</a>
					<d>-0.447214,0.894427,0</d>
				</mat_axis>
			</element>
			<element id="57">
				<mat_axis>
					<a>0.894427,0.447214,0</a>
					<d>-0.447214,0.894427,0</d>
				</mat_axis>
			</element>
			<element id="58">
				<mat_axis>
					<a>0.894427,0.447214,0</a>
					<d>-0.447214,0.894427,0</d>
				</mat_axis>
			</element>
			<element id="59">
				<mat_axis>
					<a>0.894427,0.447214,0</a>
					<d>-0.447214,0.894427,0</d>
				</mat_axis>
			</element>
			<element id="60">
				<mat_axis>
					<a>0.894427,0.447214,0</a>
					<d>-0.447214,0.894427,0</d>
				</mat_axis>
			</element>
			<element id="61">
				<mat_axis>
					<a>0.894427,0.447214,0</a>
					<d>-0.447214,0.894427,0</d>
				</mat_axis>
			</element>
			<element id="62">
				<mat_axis>
					<a>0.894427,0.447214,0</a>
					<d>-0.447214,0.894427,0</d>
				</mat_axis>
			</element>
			<element id="63">
				<mat_axis>
					<a>0.894427,0.447214,0</a>
					<d>-0.447214,0.894427,0</d>
				</mat_axis>
			</element>
			<element id="64">
				<mat_axis>
					<a>0.894427,0.447214,0</a>
					<d>-0.447214,0.894427,0</d>
				</mat_axis>
			</element>
			<element id="65">
				<mat_axis>
					<a>0.894427,0.447214,0</a>
					<d>-0.447214,0.894427,0</d>
				</mat_axis>
			</element>
			<element id="66">
				<mat_axis>
					<a>0.894427,0.447214,0</a>
					<d>-0.447214,0.894427,0</d>
				</mat_axis>
			</element>
			<element id="67">
				<mat_axis>
					<a>0.894427,0.447214,0</a>
					<d>-0.447214,0.894427,0</d>
				</mat_axis>
			</element>
			<element id="68">
				<mat_axis>
					<a>0.894427,0.447214,0</a>
					<d>-0.447214,0.894427,0</d>
				</mat_axis>
			</element>
			<element id="69">
				<mat_axis>
					<a>0.894427,0.447214,0</a>
					<d>-0.447214,0.894427,0</d>
				</mat_axis>
			</element>
			<element id="70">
				<mat_axis>
					<a>0.894427,0.447214,0</a>
					<d>-0.447214,0.894427,0</d>
				</mat_axis>
			</element>
			<element id="71">
				<mat_axis>
					<a>0.894427,0.447214,0</a>
					<d>-0.447214,0.894427,0</d>
				</mat_axis>
			</element>
			<element id="72">
				<mat_axis>
					<a>0.894427,0.447214,0</a>
					<d>-0.447214,0.894427,0</d>
				</mat_axis>
			</element>
			<element id="73">
				<mat_axis>
					<a>0.894427,0.447214,0</a>
					<d>-0.447214,0.894427,0</d>
				</mat_axis>
			</element>
			<element id="74">
				<mat_axis>
					<a>0.894427,0.447214,0</a>
					<d>-0.447214,0.894427,0</d>
				</mat_axis>
			</element>
			<element id="75">
				<mat_axis>
					<a>0.894427,0.447214,0</a>
					<d>-0.447214,0.894427,0</d>
				</mat_axis>
			</element>
			<element id="76">
				<mat_axis>
					<a>0.894427,0.447214,0</a>
					<d>-0.447214,0.894427,0</d>
				</mat_axis>
			</element>
			<element id="77">
				<mat_axis>
					<a>0.894427,0.447214,0</a>
					<d>-0.447214,0.894427,0</d>
				</mat_axis>
			</element>
			<element id="78">
				<mat_axis>
					<a>0.894427,0.447214,0</a>
					<d>-0.447214,0.894427,0</d>
				</mat_axis>
			</element>
			<element id="79">
				<mat_axis>
					<a>0.894427,0.447214,0</a>
					<d>-0.447214,0.894427,0</d>
				</mat_axis>
			</element>
			<element id="80">
				<mat_axis>
					<a>0.894427,0.447214,0</a>
					<d>-0.447214,0.894427,0</d>
				</mat_axis>
			</element>
			<element id="81">
				<mat_axis>
					<a>0.894427,0.447214,0</a>
					<d>-0.447214,0.894427,0</d>
				</mat_axis>
			</element>
			<element id="82">
				<mat_axis>
					<a>0.894427,0.447214,0</a>
					<d>-0.447214,0.894427,0</d>
				</mat_axis>
			</element>
			<element id="83">
				<mat_axis>
					<a>0.894427,0.447214,0</a>
					<d>-0.447214,0.894427,0</d>
				</mat_axis>
			</element>
			<element id="84">
				<mat_axis>
					<a>0.894427,0.447214,0</a>
					<d>-0.447214,0.894427,0</d>
				</mat_axis>
			</element>
			<element id="85">
				<mat_axis>
					<a>0.894427,0.447214,0</a>
					<d>-0.447214,0.894427,0</d>
				</mat_axis>
			</element>
			<element id="86">
				<mat_axis>
					<a>0.894427,0.447214,0</a>
					<d>-0.447214,0.894427,0</d>
				</mat_axis>
			</element>
			<element id="87">
				<mat_axis>
					<a>0.894427,0.447214,0</a>
					<d>-0.447214,0.894427,0</d>
				</mat_axis>
			</element>
			<element id="88">
				<mat_axis>
					<a>0.894427,0.447214,0</a>
					<d>-0.447214,0.894427,0</d>
				</mat_axis>
			</element>
			<element id="89">
				<mat_axis>
					<a>0.894427,0.447214,0</a>
					<d>-0.447214,0.894427,0</d>
				</mat_axis>
			</element>
			<element id="90">
				<mat_axis>
					<a>0.894427,0.447214,0</a>
					<d>-0.447214,0.894427,0</d>
				</mat_axis>
			</element>
			<element id="91">
				<mat_axis>
					<a>0.894427,0.447214,0</a>
					<d>-0.447214,0.894427,0</d>
				</mat_axis>
			</element>
			<element id="92">
				<mat_axis>
					<a>0.894427,0.447214,0</a>
					<d>-0.447214,0.894427,0</d>
				</mat_axis>
			</element>
			<element id="93">
				<mat_axis>
					<a>0.894427,0.447214,0</a>
					<d>-0.447214,0.894427,0</d>
				</mat_axis>
			</element>
			<element id="94">
				<mat_axis>
					<a>0.894427,0.447214,0</a>
					<d>-0.447214,0.894427,0</d>
				</mat_axis>
			</element>
			<element id="95">
				<mat_axis>
					<a>0.894427,0.447214,0</a>
					<d>-0.447214,0.894427,0</d>
				</mat_axis>
			</element>
			<element id="96">
				<mat_axis>
					<a>0.894427,0.447214,0</a>
					<d>-0.447214,0.894427,0</d>
				</mat_axis>
			</element>
			<element id="97">
				<mat_axis>
					<a>0.894427,0.447214,0</a>
					<d>-0.447214,0.894427,0</d>
				</mat_axis>
			</element>
			<element id="98">
				<mat_axis>
					<a>0.894427,0.447214,0</a>
					<d>-0.447214,0.894427,0</d>
				</mat_axis>
			</element>
			<element id="99">
				<mat_axis>
					<a>0.894427,0.447214,0</a>
					<d>-0.447214,0.894427,0</d>
				</mat_axis>
			</element>
			<element id="100">
				<mat_axis>
					<a>0.894427,0.447214,0</a>
					<d>-0.447214,0.894427,0</d>
				</mat_axis>
			</element>
			<element id="101">
				<mat_axis>
					<a>0.894427,0.447214,0</a>
					<d>-0.447214,0.894427,0</d>
				</mat_axis>
			</element>
			<element id="102">
				<mat_axis>
					<a>0.894427,0.447214,0</a>
					<d>-0.447214,0.894427,0</d>
				</mat_axis>
			</element>
			<element id="103">
				<mat_axis>
					<a>0.894427,0.447214,0</a>
					<d>-0.447214,0.894427,0</d>
				</mat_axis>
			</element>
			<element id="104">
				<mat_axis>
					<a>0.894427,0.447214,0</a>
					<d>-0.447214,0.894427,0</d>
				</mat_axis>
			</element>
			<element id="105">
				<mat_axis>
					<a>0.894427,0.447214,0</a>
					<d>-0.447214,0.894427,0</d>
				</mat_axis>
			</element>
			<element id="106">
				<mat_axis>
					<a>0.894427,0.447214,0</a>
					<d>-0.447214,0.894427,0</d>
				</mat_axis>
			</element>
			<element id="107">
				<mat_axis>
					<a>0.894427,0.447214,0</a>
					<d>-0.447214,0.894427,0</d>
				</mat_axis>
			</element>
			<element id="108">
				<mat_axis>
					<a>0.894427,0.447214,0</a>
					<d>-0.447214,0.894427,0</d>
				</mat_axis>
			</element>
			<element id="109">
				<mat_axis>
					<a>0.894427,0.447214,0</a>
					<d>-0.447214,0.894427,0</d>
				</mat_axis>
			</element>
			<element id="110">
				<mat_axis>
					<a>0.894427,0.447214,0</a>
					<d>-0.447214,0.894427,0</d>
				</mat_axis>
			</element>
			<element id="111">
				<mat_axis>
					<a>0.894427,0.447214,0</a>
					<d>-0.447214,0.894427,0</d>
				</mat_axis>
			</element>
			<element id="112">
				<mat_axis>
					<a>0.894427,0.447214,0</a>
					<d>-0.447214,0.894427,0</d>
				</mat_axis>
			</element>
			<element id="113">
				<mat_axis>
					<a>0.894427,0.447214,0</a>
					<d>-0.447214,0.894427,0</d>
				</mat_axis>
			</element>
			<element id="114">
				<mat_axis>
					<a>0.894427,0.447214,0</a>
					<d>-0.447214,0.894427,0</d>
				</mat_axis>
			</element>
			<element id="115">
				<mat_axis>
					<a>0.894427,0.447214,0</a>
					<d>-0.447214,0.894427,0</d>
				</mat_axis>
			</element>
			<element id="116">
				<mat_axis>
					<a>0.894427,0.447214,0</a>
					<d>-0.447214,0.894427,0</d>
				</mat_axis>
			</element>
			<element id="117">
				<mat_axis>
					<a>0.894427,0.447214,0</a>
					<d>-0.447214,0.894427,0</d>
				</mat_axis>
			</element>
			<element id="118">
				<mat_axis>
					<a>0.894427,0.447214,0</a>
					<d>-0.447214,0.894427,0</d>
				</mat_axis>
			</element>
			<element id="119">
				<mat_axis>
					<a>0.894427,0.447214,0</a>
					<d>-0.447214,0.894427,0</d>
				</mat_axis>
			</element>
			<element id="120">
				<mat_axis>
					<a>0.894427,0.447214,0</a>
					<d>-0.447214,0.894427,0</d>
				</mat_axis>
			</element>
			<element id="121">
				<mat_axis>
					<a>0.894427,0.447214,0</a>
					<d>-0.447214,0.894427,0</d>
				</mat_axis>
			</element>
			<element id="122">
				<mat_axis>
					<a>0.894427,0.447214,0</a>
					<d>-0.447214,0.894427,0</d>
				</mat_axis>
			</element>
			<element id="123">
				<mat_axis>
					<a>0.894427,0.447214,0</a>
					<d>-0.447214,0.894427,0</d>
				</mat_axis>
			</element>
			<element id="124">
				<mat_axis>
					<a>0.894427,0.447214,0</a>
					<d>-0.447214,0.894427,0</d>
				</mat_axis>
			</element>
			<element id="125">
				<mat_axis>
					<a>0.894427,0.447214,0</a>
					<d>-0.447214,0.894427,0</d>
				</mat_axis>
			</element>
			<element id="126">
				<mat_axis>
					<a>0.894427,0.447214,0</a>
					<d>-0.447214,0.894427,0</d>
				</mat_axis>
			</element>
			<element id="127">
				<mat_axis>
					<a>0.894427,0.447214,0</a>
					<d>-0.447214,0.894427,0</d>
				</mat_axis>
			</element>
			<element id="128">
				<mat_axis>
					<a>0.894427,0.447214,0</a>
					<d>-0.447214,0.894427,0</d>
				</mat_axis>
			</element>
			<element id="129">
				<mat_axis>
					<a>0.894427,0.447214,0</a>
					<d>-0.447214,0.894427,0</d>
				</mat_axis>
			</element>
			<element id="130">
				<mat_axis>
					<a>0.894427,0.447214,0</a>
					<d>-0.447214,0.894427,0</d>
				</mat_axis>
			</element>
			<element id="131">
				<mat_axis>
					<a>0.894427,0.447214,0</a>
					<d>-0.447214,0.894427,0</d>
				</mat_axis>
			</element>
			<element id="132">
				<mat_axis>
					<a>0.894427,0.447214,0</a>
					<d>-0.447214,0.894427,0</d>
				</mat_axis>
			</element>
			<element id="133">
				<mat_axis>
					<a>0.894427,0.447214,0</a>
					<d>-0.447214,0.894427,0</d>
				</mat_axis>
			</element>
			<element id="134">
				<mat_axis>
					<a>0.894427,0.447214,0</a>
					<d>-0.447214,0.894427,0</d>
				</mat_axis>
			</element>
			<element id="135">
				<mat_axis>
					<a>0.894427,0.447214,0</a>
					<d>-0.447214,0.894427,0</d>
				</mat_axis>
			</element>
			<element id="136">
				<mat_axis>
					<a>0.894427,0.447214,0</a>
					<d>-0.447214,0.894427,0</d>
				</mat_axis>
			</element>
			<element id="137">
				<mat_axis>
					<a>0.894427,0.447214,0</a>
					<d>-0.447214,0.894427,0</d>
				</mat_axis>
			</element>
			<element id="138">
				<mat_axis>
					<a>0.894427,0.447214,0</a>
					<d>-0.447214,0.894427,0</d>
				</mat_axis>
			</element>
			<element id="139">
				<mat_axis>
					<a>0.894427,0.447214,0</a>
					<d>-0.447214,0.894427,0</d>
				</mat_axis>
			</element>
			<element id="140">
				<mat_axis>
					<a>0.894427,0.447214,0</a>
					<d>-0.447214,0.894427,0</d>
				</mat_axis>
			</element>
			<element id="141">
				<mat_axis>
					<a>0.894427,0.447214,0</a>
					<d>-0.447214,0.894427,0</d>
				</mat_axis>
			</element>
			<element id="142">
				<mat_axis>
					<a>0.894427,0.447214,0</a>
					<d>-0.447214,0.894427,0</d>
				</mat_axis>
			</element>
			<element id="143">
				<mat_axis>
					<a>0.894427,0.447214,0</a>
					<d>-0.447214,0.894427,0</d>
				</mat_axis>
			</element>
			<element id="144">
				<mat_axis>
					<a>0.894427,0.447214,0</a>
					<d>-0.447214,0.894427,0</d>
				</mat_axis>
			</element>
			<element id="145">
				<mat_axis>
					<a>0.894427,0.447214,0</a>
					<d>-0.447214,0.894427,0</d>
				</mat_axis>
			</element>
			<element id="146">
				<mat_axis>
					<a>0.894427,0.447214,0</a>
					<d>-0.447214,0.894427,0</d>
				</mat_axis>
			</element>
			<element id="147">
				<mat_axis>
					<a>0.894427,0.447214,0</a>
					<d>-0.447214,0.894427,0</d>
				</mat_axis>
			</element>
			<element id="148">
				<mat_axis>
					<a>0.894427,0.447214,0</a>
					<d>-0.447214,0.894427,0</d>
				</mat_axis>
			</element>
			<element id="149">
				<mat_axis>
					<a>0.894427,0.447214,0</a>
					<d>-0.447214,0.894427,0</d>
				</mat_axis>
			</element>
			<element id="150">
				<mat_axis>
					<a>0.894427,0.447214,0</a>
					<d>-0.447214,0.894427,0</d>
				</mat_axis>
			</element>
			<element id="151">
				<mat_axis>
					<a>0.894427,0.447214,0</a>
					<d>-0.447214,0.894427,0</d>
				</mat_axis>
			</element>
			<element id="152">
				<mat_axis>
					<a>0.894427,0.447214,0</a>
					<d>-0.447214,0.894427,0</d>
				</mat_axis>
			</element>
			<element id="153">
				<mat_axis>
					<a>0.894427,0.447214,0</a>
					<d>-0.447214,0.894427,0</d>
				</mat_axis>
			</element>
			<element id="154">
				<mat_axis>
					<a>0.894427,0.447214,0</a>
					<d>-0.447214,0.894427,0</d>
				</mat_axis>
			</element>
			<element id="155">
				<mat_axis>
					<a>0.894427,0.447214,0</a>
					<d>-0.447214,0.894427,0</d>
				</mat_axis>
			</element>
			<element id="156">
				<mat_axis>
					<a>0.894427,0.447214,0</a>
					<d>-0.447214,0.894427,0</d>
				</mat_axis>
			</element>
			<element id="157">
				<mat_axis>
					<a>0.894427,0.447214,0</a>
					<d>-0.447214,0.894427,0</d>
				</mat_axis>
			</element>
			<element id="158">
				<mat_axis>
					<a>0.894427,0.447214,0</a>
					<d>-0.447214,0.894427,0</d>
				</mat_axis>
			</element>
			<element id="159">
				<mat_axis>
					<a>0.894427,0.447214,0</a>
					<d>-0.447214,0.894427,0</d>
				</mat_axis>
			</element>
			<element id="160">
				<mat_axis>
					<a>0.894427,0.447214,0</a>
					<d>-0.447214,0.894427,0</d>
				</mat_axis>
			</element>
			<element id="161">
				<mat_axis>
					<a>0.894427,0.447214,0</a>
					<d>-0.447214,0.894427,0</d>
				</mat_axis>
			</element>
			<element id="162">
				<mat_axis>
					<a>0.894427,0.447214,0</a>
					<d>-0.447214,0.894427,0</d>
				</mat_axis>
			</element>
			<element id="163">
				<mat_axis>
					<a>0.894427,0.447214,0</a>
					<d>-0.447214,0.894427,0</d>
				</mat_axis>
			</element>
			<element id="164">
				<mat_axis>
					<a>0.894427,0.447214,0</a>
					<d>-0.447214,0.894427,0</d>
				</mat_axis>
			</element>
			<element id="165">
				<mat_axis>
					<a>0.894427,0.447214,0</a>
					<d>-0.447214,0.894427,0</d>
				</mat_axis>
			</element>
			<element id="166">
				<mat_axis>
					<a>0.894427,0.447214,0</a>
					<d>-0.447214,0.894427,0</d>
				</mat_axis>
			</element>
			<element id="167">
				<mat_axis>
					<a>0.894427,0.447214,0</a>
					<d>-0.447214,0.894427,0</d>
				</mat_axis>
			</element>
			<element id="168">
				<mat_axis>
					<a>0.894427,0.447214,0</a>
					<d>-0.447214,0.894427,0</d>
				</mat_axis>
			</element>
			<element id="169">
				<mat_axis>
					<a>0.894427,0.447214,0</a>
					<d>-0.447214,0.894427,0</d>
				</mat_axis>
			</element>
			<element id="170">
				<mat_axis>
					<a>0.894427,0.447214,0</a>
					<d>-0.447214,0.894427,0</d>
				</mat_axis>
			</element>
			<element id="171">
				<mat_axis>
					<a>0.894427,0.447214,0</a>
					<d>-0.447214,0.894427,0</d>
				</mat_axis>
			</element>
			<element id="172">
				<mat_axis>
					<a>0.894427,0.447214,0</a>
					<d>-0.447214,0.894427,0</d>
				</mat_axis>
			</element>
			<element id="173">
				<mat_axis>
					<a>0.894427,0.447214,0</a>
					<d>-0.447214,0.894427,0</d>
				</mat_axis>
			</element>
			<element id="174">
				<mat_axis>
					<a>0.894427,0.447214,0</a>
					<d>-0.447214,0.894427,0</d>
				</mat_axis>
			</element>
			<element id="175">
				<mat_axis>
					<a>0.894427,0.447214,0</a>
					<d>-0.447214,0.894427,0</d>
				</mat_axis>
			</element>
			<element id="176">
				<mat_axis>
					<a>0.894427,0.447214,0</a>
					<d>-0.447214,0.894427,0</d>
				</mat_axis>
			</element>
			<element id="177">
				<mat_axis>
					<a>0.894427,0.447214,0</a>
					<d>-0.447214,0.894427,0</d>
				</mat_axis>
			</element>
			<element id="178">
				<mat_axis>
					<a>0.894427,0.447214,0</a>
					<d>-0.447214,0.894427,0</d>
				</mat_axis>
			</element>
			<element id="179">
				<mat_axis>
					<a>0.894427,0.447214,0</a>
					<d>-0.447214,0.894427,0</d>
				</mat_axis>
			</element>
			<element id="180">
				<mat_axis>
					<a>0.894427,0.447214,0</a>
					<d>-0.447214,0.894427,0</d>
				</mat_axis>
			</element>
			<element id="181">
				<mat_axis>
					<a>0.894427,0.447214,0</a>
					<d>-0.447214,0.894427,0</d>
				</mat_axis>
			</element>
			<element id="182">
				<mat_axis>
					<a>0.894427,0.447214,0</a>
					<d>-0.447214,0.894427,0</d>
				</mat_axis>
			</element>
			<element id="183">
				<mat_axis>
					<a>0.894427,0.447214,0</a>
					<d>-0.447214,0.894427,0</d>
				</mat_axis>
			</element>
			<element id="184">
				<mat_axis>
					<a>0.894427,0.447214,0</a>
					<d>-0.447214,0.894427,0</d>
				</mat_axis>
			</element>
			<element id="185">
				<mat_axis>
					<a>0.894427,0.447214,0</a>
					<d>-0.447214,0.894427,0</d>
				</mat_axis>
			</element>
			<element id="186">
				<mat_axis>
					<a>0.894427,0.447214,0</a>
					<d>-0.447214,0.894427,0</d>
				</mat_axis>
			</element>
			<element id="187">
				<mat_axis>
					<a>0.894427,0.447214,0</a>
					<d>-0.447214,0.894427,0</d>
				</mat_axis>
			</element>
			<element id="188">
				<mat_axis>
					<a>0.894427,0.447214,0</a>
					<d>-0.447214,0.894427,0</d>
				</mat_axis>
			</element>
			<element id="189">
				<mat_axis>
					<a>0.894427,0.447214,0</a>
					<d>-0.447214,0.894427,0</d>
				</mat_axis>
			</element>
			<element id="190">
				<mat_axis>
					<a>0.894427,0.447214,0</a>
					<d>-0.447214,0.894427,0</d>
				</mat_axis>
			</element>
			<element id="191">
				<mat_axis>
					<a>0.894427,0.447214,0</a>
					<d>-0.447214,0.894427,0</d>
				</mat_axis>
			</element>
			<element id="192">
				<mat_axis>
					<a>0.894427,0.447214,0</a>
					<d>-0.447214,0.894427,0</d>
				</mat_axis>
			</element>
		</ElementData>
	</Geometry>
	<Boundary>
		<fix bc="z">
			<node id="1"/>
			<node id="2"/>
			<node id="3"/>
			<node id="4"/>
			<node id="5"/>
			<node id="6"/>
			<node id="7"/>
			<node id="8"/>
			<node id="9"/>
			<node id="10"/>
			<node id="11"/>
			<node id="12"/>
			<node id="13"/>
			<node id="14"/>
			<node id="15"/>
			<node id="16"/>
			<node id="17"/>
			<node id="18"/>
			<node id="19"/>
			<node id="20"/>
<!-- ... 816 like lines cut -->
		</fix>
		<fix bc="xy">
			<node id="20"/>
			<node id="28"/>
		</fix>
		<fix bc="y">
			<node id="22"/>
			<node id="30"/>
		</fix>
	</Boundary>
	<Loads>
		<surface_load type="pressure">
			<pressure lc="1">-1</pressure>
			<linear>0</linear>
			<surface>
				<quad4 id="1">    22,   149,   154,    30</quad4>
				<quad4 id="2">   149,   150,   153,   154</quad4>
				<quad4 id="3">   150,   151,   152,   153</quad4>
				<quad4 id="4">   151,    23,    31,   152</quad4>
				<quad4 id="5">    23,   161,   166,    31</quad4>
				<quad4 id="6">   161,   162,   165,   166</quad4>
				<quad4 id="7">   162,   163,   164,   165</quad4>
				<quad4 id="8">   163,    24,    32,   164</quad4>
				<quad4 id="9">    24,   173,   178,    32</quad4>
				<quad4 id="10">   173,   174,   177,   178</quad4>
				<quad4 id="11">   174,   175,   176,   177</quad4>
				<quad4 id="12">   175,    25,    33,   176</quad4>
				<quad4 id="13">    25,   185,   190,    33</quad4>
				<quad4 id="14">   185,   186,   189,   190</quad4>
				<quad4 id="15">   186,   187,   188,   189</quad4>
				<quad4 id="16">   187,    26,    34,   188</quad4>
				<quad4 id="17">    19,   113,   118,    27</quad4>
				<quad4 id="18">   113,   114,   117,   118</quad4>
				<quad4 id="19">   114,   115,   116,   117</quad4>
				<quad4 id="20">   115,    20,    28,   116</quad4>
<!-- ... 12 like lines cut -->
			</surface>
		</surface_load>
	</Loads>
	<LoadData>
		<loadcurve id="1" type="smooth">
			<point>0,0</point>
			<point>1,1</point>
		</loadcurve>
	</LoadData>
	<Output>
		<plotfile type="febio">
			<var type="displacement"/>
			<var type="relative volume"/>
			<var type="stress"/>
		</plotfile>
		<logfile>
			<element_data data="sz">80</element_data>
		</logfile>
	</Output>
</febio_spec>
