<?xml version="1.0" encoding="ISO-8859-1"?>
<!--
Problem Description:
	Multigeneration growth in a loaded cantilever beam.  There are two intermingled growth
	generations in this analysis.  In generation 1, the beam is loaded and undergoes a large
	deflection.  Generation 2 grows in the loaded state. The load is subsequently removed 
	and the cantilever recovers to a residually stressed state.
Main Features:
	Multigeneration
Secondary Features:
Materials:
	Holmes-Mow elastic solid
Degrees of Freedom: 6300
Results:
	Steps Completed: 20
	Equilibrium Iterations: 107
	Right Hand Evaluations: 141
	Siffness Reformations: 107
	Other:
		The deflection of the beam (Y-displacement of node 561) is -4.564
		after unloading, due to the growth of the second generation in the
		deformed state.
Comments:
	This problem is from the article "Multigenerational interstitial growth of biological 
	tissues", Ateshian and Ricken, Biomech Model Mechanobiol, 2010
-->
<febio_spec version="2.0">
	<Module type="solid"/>
	<Control>
		<time_steps>20</time_steps>
		<step_size>0.1</step_size>
		<max_refs>15</max_refs>
		<max_ups>0</max_ups>
		<dtol>0.001</dtol>
		<etol>0.01</etol>
		<rtol>0</rtol>
		<lstol>0.9</lstol>
		<time_stepper>
			<dtmin>0.01</dtmin>
			<dtmax lc="1"></dtmax>
			<max_retries>5</max_retries>
			<opt_iter>10</opt_iter>
		</time_stepper>
		<analysis type="static"/>
	</Control>
	<Globals>
		<Constants>
			<T>0</T>
			<R>0</R>
			<Fc>0</Fc>
		</Constants>
	</Globals>
	<Material>
		<material id="1" name="Solid Mixture" type="multigeneration">
			<generation id="1">
				<start_time>0.0</start_time>
				<solid type="Holmes-Mow" gen="1">
					<density>1</density>
					<E>1</E>
					<v>0</v>
					<beta>0.1</beta>
				</solid>
			</generation>
			<generation id="2">
				<start_time>1.0</start_time>
				<solid type="Holmes-Mow" gen="2">
					<density>1</density>
					<E>1</E>
					<v>0</v>
					<beta>0.1</beta>
				</solid>
			</generation>
		</material>
	</Material>
	<Geometry>
		<Nodes>
			<node id="1">-5.0000000e-001,-5.0000000e-001, 0.0000000e+000</node>
			<node id="2">-5.0000000e-001,-5.0000000e-001, 8.5917405e-003</node>
			<node id="3">-5.0000000e-001,-5.0000000e-001, 1.8042655e-002</node>
			<node id="4">-5.0000000e-001,-5.0000000e-001, 2.8438661e-002</node>
			<node id="5">-5.0000000e-001,-5.0000000e-001, 3.9874267e-002</node>
			<node id="6">-5.0000000e-001,-5.0000000e-001, 5.2453435e-002</node>
			<node id="7">-5.0000000e-001,-5.0000000e-001, 6.6290519e-002</node>
			<node id="8">-5.0000000e-001,-5.0000000e-001, 8.1511311e-002</node>
			<node id="9">-5.0000000e-001,-5.0000000e-001, 9.8254182e-002</node>
			<node id="10">-5.0000000e-001,-5.0000000e-001, 1.1667134e-001</node>
			<node id="11">-5.0000000e-001,-5.0000000e-001, 1.3693022e-001</node>
			<node id="12">-5.0000000e-001,-5.0000000e-001, 1.5921498e-001</node>
			<node id="13">-5.0000000e-001,-5.0000000e-001, 1.8372822e-001</node>
			<node id="14">-5.0000000e-001,-5.0000000e-001, 2.1069278e-001</node>
			<node id="15">-5.0000000e-001,-5.0000000e-001, 2.4035380e-001</node>
			<node id="16">-5.0000000e-001,-5.0000000e-001, 2.7298092e-001</node>
			<node id="17">-5.0000000e-001,-5.0000000e-001, 3.0887075e-001</node>
			<node id="18">-5.0000000e-001,-5.0000000e-001, 3.4834956e-001</node>
			<node id="19">-5.0000000e-001,-5.0000000e-001, 3.9177626e-001</node>
			<node id="20">-5.0000000e-001,-5.0000000e-001, 4.3954563e-001</node>
<!-- ... 2122 like lines cut -->
		</Nodes>
		<Elements type="hex8" mat="1" elset="Part1">
			<elem id="1">     1,  1072,  1123,    52,     2,  1073,  1124,    53</elem>
			<elem id="2">     2,  1073,  1124,    53,     3,  1074,  1125,    54</elem>
			<elem id="3">     3,  1074,  1125,    54,     4,  1075,  1126,    55</elem>
			<elem id="4">     4,  1075,  1126,    55,     5,  1076,  1127,    56</elem>
			<elem id="5">     5,  1076,  1127,    56,     6,  1077,  1128,    57</elem>
			<elem id="6">     6,  1077,  1128,    57,     7,  1078,  1129,    58</elem>
			<elem id="7">     7,  1078,  1129,    58,     8,  1079,  1130,    59</elem>
			<elem id="8">     8,  1079,  1130,    59,     9,  1080,  1131,    60</elem>
			<elem id="9">     9,  1080,  1131,    60,    10,  1081,  1132,    61</elem>
			<elem id="10">    10,  1081,  1132,    61,    11,  1082,  1133,    62</elem>
			<elem id="11">    11,  1082,  1133,    62,    12,  1083,  1134,    63</elem>
			<elem id="12">    12,  1083,  1134,    63,    13,  1084,  1135,    64</elem>
			<elem id="13">    13,  1084,  1135,    64,    14,  1085,  1136,    65</elem>
			<elem id="14">    14,  1085,  1136,    65,    15,  1086,  1137,    66</elem>
			<elem id="15">    15,  1086,  1137,    66,    16,  1087,  1138,    67</elem>
			<elem id="16">    16,  1087,  1138,    67,    17,  1088,  1139,    68</elem>
			<elem id="17">    17,  1088,  1139,    68,    18,  1089,  1140,    69</elem>
			<elem id="18">    18,  1089,  1140,    69,    19,  1090,  1141,    70</elem>
			<elem id="19">    19,  1090,  1141,    70,    20,  1091,  1142,    71</elem>
			<elem id="20">    20,  1091,  1142,    71,    21,  1092,  1143,    72</elem>
<!-- ... 980 like lines cut -->
		</Elements>
		<Surface name="surface01">
			<quad4 id="1">  2092,  1021,  1022,  2093</quad4>
			<quad4 id="2">  2093,  1022,  1023,  2094</quad4>
			<quad4 id="3">  2094,  1023,  1024,  2095</quad4>
			<quad4 id="4">  2095,  1024,  1025,  2096</quad4>
			<quad4 id="5">  2096,  1025,  1026,  2097</quad4>
			<quad4 id="6">  2097,  1026,  1027,  2098</quad4>
			<quad4 id="7">  2098,  1027,  1028,  2099</quad4>
			<quad4 id="8">  2099,  1028,  1029,  2100</quad4>
			<quad4 id="9">  2100,  1029,  1030,  2101</quad4>
			<quad4 id="10">  2101,  1030,  1031,  2102</quad4>
			<quad4 id="11">  2102,  1031,  1032,  2103</quad4>
			<quad4 id="12">  2103,  1032,  1033,  2104</quad4>
			<quad4 id="13">  2104,  1033,  1034,  2105</quad4>
			<quad4 id="14">  2105,  1034,  1035,  2106</quad4>
			<quad4 id="15">  2106,  1035,  1036,  2107</quad4>
			<quad4 id="16">  2107,  1036,  1037,  2108</quad4>
			<quad4 id="17">  2108,  1037,  1038,  2109</quad4>
			<quad4 id="18">  2109,  1038,  1039,  2110</quad4>
			<quad4 id="19">  2110,  1039,  1040,  2111</quad4>
			<quad4 id="20">  2111,  1040,  1041,  2112</quad4>
<!-- ... 30 like lines cut -->
		</Surface>
	</Geometry>
	<Boundary>
		<fix bc="z">
			<node id="1"/>
			<node id="52"/>
			<node id="103"/>
			<node id="154"/>
			<node id="205"/>
			<node id="256"/>
			<node id="307"/>
			<node id="358"/>
			<node id="409"/>
			<node id="460"/>
			<node id="511"/>
			<node id="562"/>
			<node id="613"/>
			<node id="664"/>
			<node id="715"/>
			<node id="766"/>
			<node id="817"/>
			<node id="868"/>
			<node id="919"/>
			<node id="970"/>
<!-- ... 22 like lines cut -->
		</fix>
		<fix bc="y">
			<node id="1"/>
			<node id="52"/>
			<node id="103"/>
			<node id="154"/>
			<node id="205"/>
			<node id="256"/>
			<node id="307"/>
			<node id="358"/>
			<node id="409"/>
			<node id="460"/>
			<node id="511"/>
			<node id="562"/>
			<node id="613"/>
			<node id="664"/>
			<node id="715"/>
			<node id="766"/>
			<node id="817"/>
			<node id="868"/>
			<node id="919"/>
			<node id="970"/>
<!-- ... 22 like lines cut -->
		</fix>
		<fix bc="x">
			<node id="1"/>
			<node id="52"/>
			<node id="103"/>
			<node id="154"/>
			<node id="205"/>
			<node id="256"/>
			<node id="307"/>
			<node id="358"/>
			<node id="409"/>
			<node id="460"/>
			<node id="511"/>
			<node id="562"/>
			<node id="613"/>
			<node id="664"/>
			<node id="715"/>
			<node id="766"/>
			<node id="817"/>
			<node id="868"/>
			<node id="919"/>
			<node id="970"/>
<!-- ... 22 like lines cut -->
		</fix>
	</Boundary>
	<Loads>
		<surface_load type="traction">
			<scale lc="2">-1.0</scale>
			<traction>0,1,0</traction>
			<surface set="surface01"/>
		</surface_load>
	</Loads>
	<LoadData>
		<loadcurve id="1" type="step">
			<loadpoint>0,0</loadpoint>
			<loadpoint>1,0.1</loadpoint>
			<loadpoint>2,0.1</loadpoint>
		</loadcurve>
		<loadcurve id="2" type="linear">
			<loadpoint>0,0</loadpoint>
			<loadpoint>1,0.001</loadpoint>
			<loadpoint>2,0</loadpoint>
		</loadcurve>
	</LoadData>
	<Output>
		<plotfile type="febio">
			<var type="displacement"/>
			<var type="relative volume"/>
			<var type="stress"/>
		</plotfile>
		<logfile>
			<element_data data="sz">1</element_data>
		</logfile>
	</Output>
</febio_spec>
