<?xml version="1.0" encoding="ISO-8859-1"?>
<!--
Problem Description:
	Multigeneration growth in a hollow tube, followed by radial cut.  There are two intermingled growth
	generations in this analysis.  In generation 1, the tube is internally pressurized and undergoes a large
	expansion.  Generation 2 grows in this pressurized state. The pressure is subsequently removed 
	and the tube recovers to a residually stressed state. The tube is then cut radially and observed to
	curl inward (producing a negative opening angle) as a result of the residual stresses.
Main Features:
	Multigeneration
Secondary Features:
	Multi-step analysis
Materials:
	Holmes-Mow elastic solid
Degrees of Freedom: 6088
Results:
	Steps Completed: 15
	Equilibrium Iterations: 126
	Right Hand Evaluations: 147
	Siffness Reformations: 127
	Other:
		The final position of node 2311 is (-0.3573, -0.4602, 1)
Comments:
	This problem is from the article "Multigenerational interstitial growth of biological 
	tissues", Ateshian and Ricken, Biomech Model Mechanobiol, 2010
-->
<febio_spec version="2.0">
	<Globals>
		<Constants>
			<T>0</T>
			<R>0</R>
			<Fc>0</Fc>
		</Constants>
	</Globals>
	<Material>
		<material id="1" name="Multigeneration material" type="multigeneration">
			<generation id="1">
				<start_time>0.0</start_time>
				<solid type="Holmes-Mow" gen="1">
					<density>1</density>
					<E>1</E>
					<v>0</v>
					<beta>0.5</beta>
				</solid>
			</generation>
			<generation id="2">
				<start_time>0.5</start_time>
				<solid type="Holmes-Mow" gen="2">
					<density>1</density>
					<E>1</E>
					<v>0</v>
					<beta>0.5</beta>
				</solid>
			</generation>
		</material>
	</Material>
	<Geometry>
		<Nodes>
			<node id="1"> 5.0000000e-001, 0.0000000e+000, 0.0000000e+000</node>
			<node id="2"> 5.2500000e-001, 0.0000000e+000, 0.0000000e+000</node>
			<node id="3"> 5.5000000e-001, 0.0000000e+000, 0.0000000e+000</node>
			<node id="4"> 5.7500000e-001, 0.0000000e+000, 0.0000000e+000</node>
			<node id="5"> 6.0000000e-001, 0.0000000e+000, 0.0000000e+000</node>
			<node id="6"> 6.2500000e-001, 0.0000000e+000, 0.0000000e+000</node>
			<node id="7"> 6.5000000e-001, 0.0000000e+000, 0.0000000e+000</node>
			<node id="8"> 6.7500000e-001, 0.0000000e+000, 0.0000000e+000</node>
			<node id="9"> 7.0000000e-001, 0.0000000e+000, 0.0000000e+000</node>
			<node id="10"> 7.2500000e-001, 0.0000000e+000, 0.0000000e+000</node>
			<node id="11"> 7.5000000e-001, 0.0000000e+000, 0.0000000e+000</node>
			<node id="12"> 7.7500000e-001, 0.0000000e+000, 0.0000000e+000</node>
			<node id="13"> 8.0000000e-001, 0.0000000e+000, 0.0000000e+000</node>
			<node id="14"> 8.2500000e-001, 0.0000000e+000, 0.0000000e+000</node>
			<node id="15"> 8.5000000e-001, 0.0000000e+000, 0.0000000e+000</node>
			<node id="16"> 8.7500000e-001, 0.0000000e+000, 0.0000000e+000</node>
			<node id="17"> 9.0000000e-001, 0.0000000e+000, 0.0000000e+000</node>
			<node id="18"> 9.2500000e-001, 0.0000000e+000, 0.0000000e+000</node>
			<node id="19"> 9.5000000e-001, 0.0000000e+000, 0.0000000e+000</node>
			<node id="20"> 9.7500000e-001, 0.0000000e+000, 0.0000000e+000</node>
<!-- ... 3046 like lines cut -->
		</Nodes>
		<Elements type="hex8" mat="1" elset="Part2">
			<elem id="1">     1,     2,    23,    22,  1534,  1535,  1556,  1555</elem>
			<elem id="2">     2,     3,    24,    23,  1535,  1536,  1557,  1556</elem>
			<elem id="3">     3,     4,    25,    24,  1536,  1537,  1558,  1557</elem>
			<elem id="4">     4,     5,    26,    25,  1537,  1538,  1559,  1558</elem>
			<elem id="5">     5,     6,    27,    26,  1538,  1539,  1560,  1559</elem>
			<elem id="6">     6,     7,    28,    27,  1539,  1540,  1561,  1560</elem>
			<elem id="7">     7,     8,    29,    28,  1540,  1541,  1562,  1561</elem>
			<elem id="8">     8,     9,    30,    29,  1541,  1542,  1563,  1562</elem>
			<elem id="9">     9,    10,    31,    30,  1542,  1543,  1564,  1563</elem>
			<elem id="10">    10,    11,    32,    31,  1543,  1544,  1565,  1564</elem>
			<elem id="11">    11,    12,    33,    32,  1544,  1545,  1566,  1565</elem>
			<elem id="12">    12,    13,    34,    33,  1545,  1546,  1567,  1566</elem>
			<elem id="13">    13,    14,    35,    34,  1546,  1547,  1568,  1567</elem>
			<elem id="14">    14,    15,    36,    35,  1547,  1548,  1569,  1568</elem>
			<elem id="15">    15,    16,    37,    36,  1548,  1549,  1570,  1569</elem>
			<elem id="16">    16,    17,    38,    37,  1549,  1550,  1571,  1570</elem>
			<elem id="17">    17,    18,    39,    38,  1550,  1551,  1572,  1571</elem>
			<elem id="18">    18,    19,    40,    39,  1551,  1552,  1573,  1572</elem>
			<elem id="19">    19,    20,    41,    40,  1552,  1553,  1574,  1573</elem>
			<elem id="20">    20,    21,    42,    41,  1553,  1554,  1575,  1574</elem>
<!-- ... 1420 like lines cut -->
		</Elements>
	</Geometry>
	<Boundary>
		<fix bc="z">
			<node id="1"/>
			<node id="2"/>
			<node id="3"/>
			<node id="4"/>
			<node id="5"/>
			<node id="6"/>
			<node id="7"/>
			<node id="8"/>
			<node id="9"/>
			<node id="10"/>
			<node id="11"/>
			<node id="12"/>
			<node id="13"/>
			<node id="14"/>
			<node id="15"/>
			<node id="16"/>
			<node id="17"/>
			<node id="18"/>
			<node id="19"/>
			<node id="20"/>
<!-- ... 3046 like lines cut -->
		</fix>
		<fix bc="y">
			<node id="777"/>
			<node id="2310"/>
		</fix>
		<fix bc="x">
			<node id="757"/>
			<node id="758"/>
			<node id="759"/>
			<node id="760"/>
			<node id="761"/>
			<node id="762"/>
			<node id="763"/>
			<node id="764"/>
			<node id="765"/>
			<node id="766"/>
			<node id="767"/>
			<node id="768"/>
			<node id="769"/>
			<node id="770"/>
			<node id="771"/>
			<node id="772"/>
			<node id="773"/>
			<node id="774"/>
			<node id="775"/>
			<node id="776"/>
<!-- ... 22 like lines cut -->
		</fix>
	</Boundary>
	<Loads>
		<surface_load type="normal_traction">
			<linear>0</linear>
			<effective>0</effective>
			<surface>
				<quad4 id="1" lc="2" scale="1">    22,     1,  1534,  1555</quad4>
				<quad4 id="2" lc="2" scale="1">    43,    22,  1555,  1576</quad4>
				<quad4 id="3" lc="2" scale="1">    64,    43,  1576,  1597</quad4>
				<quad4 id="4" lc="2" scale="1">    85,    64,  1597,  1618</quad4>
				<quad4 id="5" lc="2" scale="1">   106,    85,  1618,  1639</quad4>
				<quad4 id="6" lc="2" scale="1">   127,   106,  1639,  1660</quad4>
				<quad4 id="7" lc="2" scale="1">   148,   127,  1660,  1681</quad4>
				<quad4 id="8" lc="2" scale="1">   169,   148,  1681,  1702</quad4>
				<quad4 id="9" lc="2" scale="1">   190,   169,  1702,  1723</quad4>
				<quad4 id="10" lc="2" scale="1">   211,   190,  1723,  1744</quad4>
				<quad4 id="11" lc="2" scale="1">   232,   211,  1744,  1765</quad4>
				<quad4 id="12" lc="2" scale="1">   253,   232,  1765,  1786</quad4>
				<quad4 id="13" lc="2" scale="1">   274,   253,  1786,  1807</quad4>
				<quad4 id="14" lc="2" scale="1">   295,   274,  1807,  1828</quad4>
				<quad4 id="15" lc="2" scale="1">   316,   295,  1828,  1849</quad4>
				<quad4 id="16" lc="2" scale="1">   337,   316,  1849,  1870</quad4>
				<quad4 id="17" lc="2" scale="1">   358,   337,  1870,  1891</quad4>
				<quad4 id="18" lc="2" scale="1">   379,   358,  1891,  1912</quad4>
				<quad4 id="19" lc="2" scale="1">   400,   379,  1912,  1933</quad4>
				<quad4 id="20" lc="2" scale="1">   421,   400,  1933,  1954</quad4>
<!-- ... 52 like lines cut -->
			</surface>
		</surface_load>
	</Loads>
	<LoadData>
		<loadcurve id="1" type="step">
			<loadpoint>0,0</loadpoint>
			<loadpoint>0.5,0.5</loadpoint>
			<loadpoint>1,0.5</loadpoint>
		</loadcurve>
		<loadcurve id="2" type="linear">
			<loadpoint>0,0</loadpoint>
			<loadpoint>0.5,-1</loadpoint>
			<loadpoint>1,0</loadpoint>
		</loadcurve>
		<loadcurve id="3" type="linear">
			<loadpoint>0,0</loadpoint>
			<loadpoint>1,0</loadpoint>
		</loadcurve>
	</LoadData>
	<Output>
		<plotfile type="febio">
			<var type="displacement"/>
			<var type="relative volume"/>
			<var type="stress"/>
		</plotfile>
		<logfile>
			<element_data data="sy">141</element_data>
		</logfile>
	</Output>
	<Step name="Step01">
		<Module type="solid"/>
		<Control>
			<time_steps>10</time_steps>
			<step_size>0.1</step_size>
			<max_refs>15</max_refs>
			<max_ups>0</max_ups>
			<dtol>0.001</dtol>
			<etol>0.01</etol>
			<rtol>0</rtol>
			<lstol>0.9</lstol>
			<time_stepper>
				<dtmin>0.01</dtmin>
				<dtmax lc="1"></dtmax>
				<max_retries>5</max_retries>
				<opt_iter>10</opt_iter>
			</time_stepper>
			<analysis type="static"/>
		</Control>
		<Boundary>
			<prescribe bc="x" lc="3">
				<node id="778">1</node>
				<node id="779">1</node>
				<node id="780">1</node>
				<node id="781">1</node>
				<node id="782">1</node>
				<node id="783">1</node>
				<node id="784">1</node>
				<node id="785">1</node>
				<node id="786">1</node>
				<node id="787">1</node>
				<node id="788">1</node>
				<node id="789">1</node>
				<node id="790">1</node>
				<node id="791">1</node>
				<node id="792">1</node>
				<node id="793">1</node>
				<node id="794">1</node>
				<node id="795">1</node>
				<node id="796">1</node>
				<node id="797">1</node>
<!-- ... 22 like lines cut -->
			</prescribe>
		</Boundary>
	</Step>
	<Step name="Step02">
		<Module type="solid"/>
		<Control>
			<time_steps>1</time_steps>
			<step_size>0.1</step_size>
			<max_refs>15</max_refs>
			<max_ups>0</max_ups>
			<dtol>0.001</dtol>
			<etol>0.01</etol>
			<rtol>0</rtol>
			<lstol>0.9</lstol>
			<time_stepper>
				<dtmin>0.01</dtmin>
				<dtmax>0.1</dtmax>
				<max_retries>5</max_retries>
				<opt_iter>10</opt_iter>
			</time_stepper>
			<analysis type="static"/>
		</Control>
	</Step>
</febio_spec>
