<?xml version="1.0" encoding="ISO-8859-1"?>
<!--
Problem Description:
	Two element structure.  Node 1 is constrained in x,y,z.  Node 12 has an x-displacement of
	1 unit at time t=1.  The z-displacement of node 10 is the negative of the x-displacement
	of node 12.  Node 3 is constrained to move only in the y-direction.
Main Features:
	Linear constraints
Secondary Features:
	
Materials:
	Neo-Hookean
Degrees of Freedom: 28
Results:
	Steps Completed: 10
	Equilibrium Iterations: 50
	Right Hand Evaluations: 60
	Siffness Reformations: 10
	Other:
		The coordinates of node 10 at t=1 are: x=1.312, y=-0.4283, z=0.
Comments:
	
-->
<febio_spec version="2.0">
	<Module type="solid"/>
	<Control>
		<title>Linear Constraints</title>
		<time_steps>10</time_steps>
		<step_size>0.1</step_size>
		<max_refs>15</max_refs>
		<max_ups>10</max_ups>
		<dtol>0.001</dtol>
		<etol>0.01</etol>
		<rtol>0</rtol>
		<lstol>0.9</lstol>
		<time_stepper>
			<dtmin>0.01</dtmin>
			<dtmax>0.1</dtmax>
			<max_retries>5</max_retries>
			<opt_iter>10</opt_iter>
		</time_stepper>
		<analysis type="static"/>
	</Control>
	<Globals>
		<Constants>
			<T>0</T>
			<R>0</R>
			<Fc>0</Fc>
		</Constants>
	</Globals>
	<Material>
		<material id="1" name="Material 1" type="neo-Hookean">
			<density>1</density>
			<E>1</E>
			<v>0</v>
		</material>
	</Material>
	<Geometry>
		<Nodes>
			<node id="1">-1.0000000e+000,-5.0000000e-001, 0.0000000e+000</node>
			<node id="2">-1.0000000e+000,-5.0000000e-001, 1.0000000e+000</node>
			<node id="3">-1.0000000e+000, 5.0000000e-001, 0.0000000e+000</node>
			<node id="4">-1.0000000e+000, 5.0000000e-001, 1.0000000e+000</node>
			<node id="5"> 0.0000000e+000,-5.0000000e-001, 0.0000000e+000</node>
			<node id="6"> 0.0000000e+000,-5.0000000e-001, 1.0000000e+000</node>
			<node id="7"> 0.0000000e+000, 5.0000000e-001, 0.0000000e+000</node>
			<node id="8"> 0.0000000e+000, 5.0000000e-001, 1.0000000e+000</node>
			<node id="9"> 1.0000000e+000,-5.0000000e-001, 0.0000000e+000</node>
			<node id="10"> 1.0000000e+000,-5.0000000e-001, 1.0000000e+000</node>
			<node id="11"> 1.0000000e+000, 5.0000000e-001, 0.0000000e+000</node>
			<node id="12"> 1.0000000e+000, 5.0000000e-001, 1.0000000e+000</node>
		</Nodes>
		<Elements type="hex8" mat="1" elset="Part9">
			<elem id="1">     1,     5,     7,     3,     2,     6,     8,     4</elem>
			<elem id="2">     5,     9,    11,     7,     6,    10,    12,     8</elem>
		</Elements>
	</Geometry>
	<Boundary>
		<fix bc="z">
			<node id="1"/>
			<node id="3"/>
			<node id="12"/>
		</fix>
		<fix bc="y">
			<node id="1"/>
			<node id="12"/>
		</fix>
		<fix bc="x">
			<node id="1"/>
			<node id="3"/>
		</fix>
		<prescribe bc="x" lc="1">
			<node id="12">1</node>
		</prescribe>
		<linear_constraint node="10" bc="z">
			<node id="12" bc="x">-1</node>
		</linear_constraint>
	</Boundary>
	<LoadData>
		<loadcurve id="1" type="linear">
			<loadpoint>0,0</loadpoint>
			<loadpoint>1,1</loadpoint>
		</loadcurve>
	</LoadData>
	<Output>
		<plotfile type="febio">
			<var type="displacement"/>
			<var type="relative volume"/>
			<var type="stress"/>
		</plotfile>
		<logfile>
			<element_data data="sx">2</element_data>
		</logfile>
	</Output>
</febio_spec>
