<?xml version="1.0" encoding="ISO-8859-1"?>
<!--
Problem Description:
	This problem demonstrates bone remodeling using the Weinans Huiskes remodeling material.
Main Features:
	Bone remodeling
Secondary Features:
	
Materials:
	Weinans Huiskes remodeling
	Carter-Hayes
Degrees of Freedom: 5128
Results:
	Steps Completed: 100
	Equilibrium Iterations: 526
	Right Hand Evaluations: 1874
	Siffness Reformations: 526
	Other:
		The minimum density is 0.1 at time t = 10.
Comments:
	
-->
<febio_spec version="2.0">
	<Module type="solid"/>
	<Control>
		<time_steps>100</time_steps>
		<step_size>0.1</step_size>
		<max_refs>15</max_refs>
		<max_ups>0</max_ups>
		<dtol>0.001</dtol>
		<etol>0.01</etol>
		<rtol>0</rtol>
		<lstol>0.9</lstol>
		<time_stepper>
			<dtmin>0.01</dtmin>
			<dtmax>0.1</dtmax>
			<max_retries>5</max_retries>
			<opt_iter>10</opt_iter>
		</time_stepper>
		<analysis type="static"/>
	</Control>
	<Globals>
		<Constants>
			<T>0</T>
			<R>0</R>
			<Fc>0</Fc>
		</Constants>
	</Globals>
	<Material>
		<material id="1" name="Weinans Huiskes remodeling" type="remodeling solid">
		  <min_density>0.1</min_density>
		  <max_density>1.74</max_density>
		  <solid type="Carter-Hayes (old)">
			<density>1.74</density>
			<c>3.790E+10</c>
			<gamma>3.0</gamma>
			<v>0.3</v>
		  </solid>
		  <supply type="Huiskes-supply">
		    <B>1e-5</B>
		    <k>4e4</k>
		  </supply>
		</material>
		<material id="2" name="Side Plate" type="neo-Hookean">
			<density>1</density>
			<E>1.7e+011</E>
			<v>0.3</v>
		</material>
	</Material>
	<Geometry>
		<Nodes>
			<node id="1"> 0.0000000e+000, 0.0000000e+000, 1.2000000e+000</node>
			<node id="2">-1.5400000e-001, 9.0370000e+000, 1.2000000e+000</node>
			<node id="3">-6.6956520e-003, 3.9291300e-001, 1.2000000e+000</node>
			<node id="4">-1.3391300e-002, 7.8582610e-001, 1.2000000e+000</node>
			<node id="5">-2.0086960e-002, 1.1787390e+000, 1.2000000e+000</node>
			<node id="6">-2.6782610e-002, 1.5716520e+000, 1.2000000e+000</node>
			<node id="7">-3.3478260e-002, 1.9645650e+000, 1.2000000e+000</node>
			<node id="8">-4.0173910e-002, 2.3574780e+000, 1.2000000e+000</node>
			<node id="9">-4.6869570e-002, 2.7503910e+000, 1.2000000e+000</node>
			<node id="10">-5.3565220e-002, 3.1433040e+000, 1.2000000e+000</node>
			<node id="11">-6.0260870e-002, 3.5362170e+000, 1.2000000e+000</node>
			<node id="12">-6.6956520e-002, 3.9291300e+000, 1.2000000e+000</node>
			<node id="13">-7.3652170e-002, 4.3220430e+000, 1.2000000e+000</node>
			<node id="14">-8.0347830e-002, 4.7149570e+000, 1.2000000e+000</node>
			<node id="15">-8.7043480e-002, 5.1078700e+000, 1.2000000e+000</node>
			<node id="16">-9.3739130e-002, 5.5007830e+000, 1.2000000e+000</node>
			<node id="17">-1.0043480e-001, 5.8936960e+000, 1.2000000e+000</node>
			<node id="18">-1.0713040e-001, 6.2866090e+000, 1.2000000e+000</node>
			<node id="19">-1.1382610e-001, 6.6795220e+000, 1.2000000e+000</node>
			<node id="20">-1.2052170e-001, 7.0724350e+000, 1.2000000e+000</node>
<!-- ... 1893 like lines cut -->
		</Nodes>
		<Elements type="hex8" mat="1" elset="Part1">
			<elem id="1">   585,   724,   731,   725,    25,    54,   147,    26</elem>
			<elem id="2">   724,   723,   732,   731,    54,    53,   148,   147</elem>
			<elem id="3">   723,   722,   733,   732,    53,    52,   149,   148</elem>
			<elem id="4">   722,   721,   734,   733,    52,    51,   150,   149</elem>
			<elem id="5">   721,   720,   735,   734,    51,    50,   151,   150</elem>
			<elem id="6">   720,   719,   736,   735,    50,    49,   152,   151</elem>
			<elem id="7">   719,   718,   737,   736,    49,    48,   153,   152</elem>
			<elem id="8">   718,   717,   738,   737,    48,    47,   154,   153</elem>
			<elem id="9">   717,   716,   739,   738,    47,    46,   155,   154</elem>
			<elem id="10">   716,   715,   740,   739,    46,    45,   156,   155</elem>
			<elem id="11">   715,   714,   741,   740,    45,    44,   157,   156</elem>
			<elem id="12">   714,   713,   742,   741,    44,    43,   158,   157</elem>
			<elem id="13">   713,   712,   743,   742,    43,    42,   159,   158</elem>
			<elem id="14">   712,   711,   744,   743,    42,    41,   160,   159</elem>
			<elem id="15">   711,   710,   745,   744,    41,    40,   161,   160</elem>
			<elem id="16">   710,   709,   746,   745,    40,    39,   162,   161</elem>
			<elem id="17">   709,   708,   747,   746,    39,    38,   163,   162</elem>
			<elem id="18">   708,   707,   748,   747,    38,    37,   164,   163</elem>
			<elem id="19">   707,   706,   749,   748,    37,    36,   165,   164</elem>
			<elem id="20">   706,   705,   750,   749,    36,    35,   166,   165</elem>
<!-- ... 490 like lines cut -->
		</Elements>
		<Elements type="hex8" mat="2" elset="Part2">
			<elem id="511">  1543,  1551,  1604,  1549,   585,   724,  1176,   725</elem>
			<elem id="512">  1551,  1552,  1605,  1604,   724,   723,  1177,  1176</elem>
			<elem id="513">  1552,  1553,  1606,  1605,   723,   722,  1178,  1177</elem>
			<elem id="514">  1553,  1554,  1607,  1606,   722,   721,  1179,  1178</elem>
			<elem id="515">  1554,  1555,  1608,  1607,   721,   720,  1180,  1179</elem>
			<elem id="516">  1555,  1556,  1609,  1608,   720,   719,  1181,  1180</elem>
			<elem id="517">  1556,  1557,  1610,  1609,   719,   718,  1182,  1181</elem>
			<elem id="518">  1557,  1558,  1611,  1610,   718,   717,  1183,  1182</elem>
			<elem id="519">  1558,  1559,  1612,  1611,   717,   716,  1184,  1183</elem>
			<elem id="520">  1559,  1560,  1613,  1612,   716,   715,  1185,  1184</elem>
			<elem id="521">  1560,  1561,  1614,  1613,   715,   714,  1186,  1185</elem>
			<elem id="522">  1561,  1562,  1615,  1614,   714,   713,  1187,  1186</elem>
			<elem id="523">  1562,  1563,  1616,  1615,   713,   712,  1188,  1187</elem>
			<elem id="524">  1563,  1564,  1617,  1616,   712,   711,  1189,  1188</elem>
			<elem id="525">  1564,  1565,  1618,  1617,   711,   710,  1190,  1189</elem>
			<elem id="526">  1565,  1566,  1619,  1618,   710,   709,  1191,  1190</elem>
			<elem id="527">  1566,  1567,  1620,  1619,   709,   708,  1192,  1191</elem>
			<elem id="528">  1567,  1568,  1621,  1620,   708,   707,  1193,  1192</elem>
			<elem id="529">  1568,  1569,  1622,  1621,   707,   706,  1194,  1193</elem>
			<elem id="530">  1569,  1570,  1623,  1622,   706,   705,  1195,  1194</elem>
<!-- ... 348 like lines cut -->
		</Elements>
	</Geometry>
	<Boundary>
		<fix bc="y">
			<node id="1"/>
			<node id="25"/>
			<node id="26"/>
			<node id="27"/>
			<node id="28"/>
			<node id="29"/>
			<node id="30"/>
			<node id="31"/>
			<node id="585"/>
			<node id="587"/>
			<node id="725"/>
			<node id="726"/>
			<node id="727"/>
			<node id="728"/>
			<node id="729"/>
			<node id="730"/>
			<node id="1520"/>
			<node id="1543"/>
			<node id="1544"/>
			<node id="1545"/>
<!-- ... 4 like lines cut -->
		</fix>
		<fix bc="z">
			<node id="1"/>
			<node id="2"/>
			<node id="3"/>
			<node id="4"/>
			<node id="5"/>
			<node id="6"/>
			<node id="7"/>
			<node id="8"/>
			<node id="9"/>
			<node id="10"/>
			<node id="11"/>
			<node id="12"/>
			<node id="13"/>
			<node id="14"/>
			<node id="15"/>
			<node id="16"/>
			<node id="17"/>
			<node id="18"/>
			<node id="19"/>
			<node id="20"/>
<!-- ... 564 like lines cut -->
		</fix>
		<fix bc="x">
			<node id="1"/>
			<node id="587"/>
			<node id="1520"/>
		</fix>
	</Boundary>
	<Loads>
		<nodal_load bc="x" lc="1">
			<node id="105">4.712e+007</node>
			<node id="649">4.712e+007</node>
		</nodal_load>
		<nodal_load bc="y" lc="2">
			<node id="105">-1.058e+008</node>
			<node id="649">-1.058e+008</node>
		</nodal_load>
		<nodal_load bc="x" lc="3">
			<node id="101">-1.499e+007</node>
			<node id="653">-1.499e+007</node>
		</nodal_load>
		<nodal_load bc="y" lc="4">
			<node id="101">-5.593e+007</node>
			<node id="653">-5.593e+007</node>
		</nodal_load>
		<nodal_load bc="x" lc="5">
			<node id="109">6.417e+007</node>
			<node id="645">6.417e+007</node>
		</nodal_load>
		<nodal_load bc="y" lc="6">
			<node id="109">-4.328e+007</node>
			<node id="645">-4.328e+007</node>
		</nodal_load>
		<nodal_load bc="x" lc="7">
			<node id="89">-2.747e+007</node>
			<node id="670">-2.747e+007</node>
		</nodal_load>
		<nodal_load bc="y" lc="8">
			<node id="89">6.756e+007</node>
			<node id="670">6.756e+007</node>
		</nodal_load>
	</Loads>
	<LoadData>
		<loadcurve id="1" type="smooth">
			<loadpoint>0,0</loadpoint>
			<loadpoint>1,1</loadpoint>
		</loadcurve>
		<loadcurve id="2" type="smooth">
			<loadpoint>0,0</loadpoint>
			<loadpoint>1,1</loadpoint>
		</loadcurve>
		<loadcurve id="3" type="smooth">
			<loadpoint>0,0</loadpoint>
			<loadpoint>1,1</loadpoint>
		</loadcurve>
		<loadcurve id="4" type="smooth">
			<loadpoint>0,0</loadpoint>
			<loadpoint>1,1</loadpoint>
		</loadcurve>
		<loadcurve id="5" type="smooth">
			<loadpoint>0,0</loadpoint>
			<loadpoint>1,1</loadpoint>
		</loadcurve>
		<loadcurve id="6" type="smooth">
			<loadpoint>0,0</loadpoint>
			<loadpoint>1,1</loadpoint>
		</loadcurve>
		<loadcurve id="7" type="smooth">
			<loadpoint>0,0</loadpoint>
			<loadpoint>1,1</loadpoint>
		</loadcurve>
		<loadcurve id="8" type="smooth">
			<loadpoint>0,0</loadpoint>
			<loadpoint>1,1</loadpoint>
		</loadcurve>
	</LoadData>
	<Output>
		<plotfile type="febio">
			<var type="displacement"/>
			<var type="relative volume"/>
			<var type="stress"/>
			<var type="strain energy density"/>
			<var type="specific strain energy"/>
			<var type="density"/>
		</plotfile>
		<logfile>
			<element_data data="Ez">574</element_data>
		</logfile>
	</Output>
</febio_spec>
