<?xml version="1.0" encoding="ISO-8859-1"?>
<!--
Problem Description:
	Multi-step analysis.  A cantilever beam has a force in the z-direction of 0 units at
	time t=0 to 1 unit at time t=1 applied to the top nodes of it's free end.  Dynamic
	analysis is then applied to time t=2.5.
Main Features:
	Multi-step analysis
	Dynamic analysis
Secondary Features:
	
Materials:
	Neo-Hookean
Degrees of Freedom: 270
Results:
	Steps Completed: 30
	Equilibrium Iterations: 117
	Right Hand Evaluations: 147
	Siffness Reformations: 30
	Other:
		The beam has a maximum z-displacement of 0.471 units at time t=2.5.
Comments:
	
-->
<febio_spec version="2.0">
	<Globals>
		<Constants>
			<T>0</T>
			<R>0</R>
			<Fc>0</Fc>
		</Constants>
	</Globals>
	<Material>
		<material id="1" name="Material 3" type="neo-Hookean">
			<density>1</density>
			<E>10000</E>
			<v>0</v>
		</material>
	</Material>
	<Geometry>
		<Nodes>
			<node id="1">-2.0000000e+000,-2.5000000e-001, 1.0000000e+000</node>
			<node id="2">-2.0000000e+000,-2.5000000e-001, 1.2500000e+000</node>
			<node id="3">-2.0000000e+000,-2.5000000e-001, 1.5000000e+000</node>
			<node id="4">-2.0000000e+000, 0.0000000e+000, 1.0000000e+000</node>
			<node id="5">-2.0000000e+000, 0.0000000e+000, 1.2500000e+000</node>
			<node id="6">-2.0000000e+000, 0.0000000e+000, 1.5000000e+000</node>
			<node id="7">-2.0000000e+000, 2.5000000e-001, 1.0000000e+000</node>
			<node id="8">-2.0000000e+000, 2.5000000e-001, 1.2500000e+000</node>
			<node id="9">-2.0000000e+000, 2.5000000e-001, 1.5000000e+000</node>
			<node id="10">-1.6000000e+000,-2.5000000e-001, 1.0000000e+000</node>
			<node id="11">-1.6000000e+000,-2.5000000e-001, 1.2500000e+000</node>
			<node id="12">-1.6000000e+000,-2.5000000e-001, 1.5000000e+000</node>
			<node id="13">-1.6000000e+000, 0.0000000e+000, 1.0000000e+000</node>
			<node id="14">-1.6000000e+000, 0.0000000e+000, 1.2500000e+000</node>
			<node id="15">-1.6000000e+000, 0.0000000e+000, 1.5000000e+000</node>
			<node id="16">-1.6000000e+000, 2.5000000e-001, 1.0000000e+000</node>
			<node id="17">-1.6000000e+000, 2.5000000e-001, 1.2500000e+000</node>
			<node id="18">-1.6000000e+000, 2.5000000e-001, 1.5000000e+000</node>
			<node id="19">-1.2000000e+000,-2.5000000e-001, 1.0000000e+000</node>
			<node id="20">-1.2000000e+000,-2.5000000e-001, 1.2500000e+000</node>
<!-- ... 79 like lines cut -->
		</Nodes>
		<Elements type="hex8" mat="1" elset="Part1">
			<elem id="1">     1,    10,    13,     4,     2,    11,    14,     5</elem>
			<elem id="2">     2,    11,    14,     5,     3,    12,    15,     6</elem>
			<elem id="3">     4,    13,    16,     7,     5,    14,    17,     8</elem>
			<elem id="4">     5,    14,    17,     8,     6,    15,    18,     9</elem>
			<elem id="5">    10,    19,    22,    13,    11,    20,    23,    14</elem>
			<elem id="6">    11,    20,    23,    14,    12,    21,    24,    15</elem>
			<elem id="7">    13,    22,    25,    16,    14,    23,    26,    17</elem>
			<elem id="8">    14,    23,    26,    17,    15,    24,    27,    18</elem>
			<elem id="9">    19,    28,    31,    22,    20,    29,    32,    23</elem>
			<elem id="10">    20,    29,    32,    23,    21,    30,    33,    24</elem>
			<elem id="11">    22,    31,    34,    25,    23,    32,    35,    26</elem>
			<elem id="12">    23,    32,    35,    26,    24,    33,    36,    27</elem>
			<elem id="13">    28,    37,    40,    31,    29,    38,    41,    32</elem>
			<elem id="14">    29,    38,    41,    32,    30,    39,    42,    33</elem>
			<elem id="15">    31,    40,    43,    34,    32,    41,    44,    35</elem>
			<elem id="16">    32,    41,    44,    35,    33,    42,    45,    36</elem>
			<elem id="17">    37,    46,    49,    40,    38,    47,    50,    41</elem>
			<elem id="18">    38,    47,    50,    41,    39,    48,    51,    42</elem>
			<elem id="19">    40,    49,    52,    43,    41,    50,    53,    44</elem>
			<elem id="20">    41,    50,    53,    44,    42,    51,    54,    45</elem>
<!-- ... 20 like lines cut -->
		</Elements>
	</Geometry>
	<Boundary>
		<fix bc="z">
			<node id="1"/>
			<node id="2"/>
			<node id="3"/>
			<node id="4"/>
			<node id="5"/>
			<node id="6"/>
			<node id="7"/>
			<node id="8"/>
			<node id="9"/>
		</fix>
		<fix bc="y">
			<node id="1"/>
			<node id="2"/>
			<node id="3"/>
			<node id="4"/>
			<node id="5"/>
			<node id="6"/>
			<node id="7"/>
			<node id="8"/>
			<node id="9"/>
		</fix>
		<fix bc="x">
			<node id="1"/>
			<node id="2"/>
			<node id="3"/>
			<node id="4"/>
			<node id="5"/>
			<node id="6"/>
			<node id="7"/>
			<node id="8"/>
			<node id="9"/>
		</fix>
	</Boundary>
	<LoadData>
		<loadcurve id="1" type="linear">
			<loadpoint>0,0</loadpoint>
			<loadpoint>1,1</loadpoint>
		</loadcurve>
	</LoadData>
	<Output>
		<plotfile type="febio"></plotfile>
		<logfile>
			<element_data data="sz">20</element_data>
		</logfile>
	</Output>
	<Step name="Step01">
		<Module type="solid"/>
		<Control>
			<time_steps>10</time_steps>
			<step_size>0.1</step_size>
			<max_refs>15</max_refs>
			<max_ups>10</max_ups>
			<dtol>0.001</dtol>
			<etol>0.01</etol>
			<rtol>0</rtol>
			<lstol>0.9</lstol>
			<analysis type="static"/>
		</Control>
		<Loads>
			<nodal_load bc="z" lc="1">
				<node id="93">1</node>
				<node id="96">1</node>
				<node id="99">1</node>
			</nodal_load>
		</Loads>
	</Step>
	<Step name="Step02">
		<Module type="solid"/>
		<Control>
			<time_steps>50</time_steps>
			<step_size>0.05</step_size>
			<max_refs>15</max_refs>
			<max_ups>10</max_ups>
			<dtol>0.001</dtol>
			<etol>0.01</etol>
			<rtol>0</rtol>
			<lstol>0.9</lstol>
			<analysis type="dynamic"/>
		</Control>
	</Step>
</febio_spec>
