<?xml version="1.0" encoding="ISO-8859-1"?>
<!--
Problem Description:
	AngioFE Plugin.  Simulates the mechanical interactions between growing neovessels
	and the deformation of the matrix in vitro.
Main Features:
	Plugins
	AngioFE
Secondary Features:
	Viscoelasticity
Materials:
	neo-Hookean
	viscoelastic
	EFD-NeoHookean
Degrees of Freedom: 1243
Results:
	Other:
		The 2nd principal Lagrange strain for element 283 is -0.01784 at time t=23.5
Comments:
	
-->
<febio_spec version="2.0">
	<Module type="solid"/>
	<Control>
		<time_steps>1</time_steps>
		<step_size>0.5</step_size>
		<max_refs>15</max_refs>
		<max_ups>10</max_ups>
		<dtol>0.001</dtol>
		<etol>0.01</etol>
		<rtol>0</rtol>
		<lstol>0.9</lstol>
		<min_residual>1e-020</min_residual>
		<analysis type="static"/>
	</Control>
	<Globals>
		<Constants>
			<T>0</T>
			<R>0</R>
			<Fc>0</Fc>
		</Constants>
	</Globals>
	<Material>
		<material id="1" name="Material01" type="solid mixture">
			<density>5e-16</density>	
			<solid type="angio">
				<a>3.72e-12</a>
				<b>0.004</b>					
				<N>2.0</N>
			</solid>
			<solid type="viscoelastic">
				<t1>0.00005</t1>
				<g0>0.0</g0>
				<g1>1.0</g1>
				<elastic type="solid mixture">				
					<solid type="neo-Hookean">
						<E>0.003452</E>
						<v>0.0</v>
					</solid>
					<solid type="EFD neo-Hookean">
						<E>0.00003452</E>
						<v>0.</v>
						<beta>2.5,2.5,2.5</beta> 
     						<ksi>0.0003452,0.0003452,0.0003452</ksi> 
     						<mat_axis type="local"></mat_axis> 
					</solid>
				</elastic>
			</solid>
		</material>
	</Material>
	<Geometry>
		<Nodes>
			<node id="1"> 0.0000000e+000, 0.0000000e+000, 0.0000000e+000</node>
			<node id="2"> 0.0000000e+000, 0.0000000e+000, 3.0000000e+001</node>
			<node id="3"> 0.0000000e+000, 0.0000000e+000, 6.0000000e+001</node>
			<node id="4"> 0.0000000e+000, 0.0000000e+000, 9.0000000e+001</node>
			<node id="5"> 0.0000000e+000, 3.0000000e+001, 0.0000000e+000</node>
			<node id="6"> 0.0000000e+000, 3.0000000e+001, 3.0000000e+001</node>
			<node id="7"> 0.0000000e+000, 3.0000000e+001, 6.0000000e+001</node>
			<node id="8"> 0.0000000e+000, 3.0000000e+001, 9.0000000e+001</node>
			<node id="9"> 0.0000000e+000, 6.0000000e+001, 0.0000000e+000</node>
			<node id="10"> 0.0000000e+000, 6.0000000e+001, 3.0000000e+001</node>
			<node id="11"> 0.0000000e+000, 6.0000000e+001, 6.0000000e+001</node>
			<node id="12"> 0.0000000e+000, 6.0000000e+001, 9.0000000e+001</node>
			<node id="13"> 0.0000000e+000, 9.0000000e+001, 0.0000000e+000</node>
			<node id="14"> 0.0000000e+000, 9.0000000e+001, 3.0000000e+001</node>
			<node id="15"> 0.0000000e+000, 9.0000000e+001, 6.0000000e+001</node>
			<node id="16"> 0.0000000e+000, 9.0000000e+001, 9.0000000e+001</node>
			<node id="17"> 0.0000000e+000, 1.2000000e+002, 0.0000000e+000</node>
			<node id="18"> 0.0000000e+000, 1.2000000e+002, 3.0000000e+001</node>
			<node id="19"> 0.0000000e+000, 1.2000000e+002, 6.0000000e+001</node>
			<node id="20"> 0.0000000e+000, 1.2000000e+002, 9.0000000e+001</node>
<!-- ... 464 like lines cut -->
		</Nodes>
		<Elements type="hex8" mat="1" elset="Part1">
			<elem id="1">     1,    45,    49,     5,     2,    46,    50,     6</elem>
			<elem id="2">     2,    46,    50,     6,     3,    47,    51,     7</elem>
			<elem id="3">     3,    47,    51,     7,     4,    48,    52,     8</elem>
			<elem id="4">     5,    49,    53,     9,     6,    50,    54,    10</elem>
			<elem id="5">     6,    50,    54,    10,     7,    51,    55,    11</elem>
			<elem id="6">     7,    51,    55,    11,     8,    52,    56,    12</elem>
			<elem id="7">     9,    53,    57,    13,    10,    54,    58,    14</elem>
			<elem id="8">    10,    54,    58,    14,    11,    55,    59,    15</elem>
			<elem id="9">    11,    55,    59,    15,    12,    56,    60,    16</elem>
			<elem id="10">    13,    57,    61,    17,    14,    58,    62,    18</elem>
			<elem id="11">    14,    58,    62,    18,    15,    59,    63,    19</elem>
			<elem id="12">    15,    59,    63,    19,    16,    60,    64,    20</elem>
			<elem id="13">    17,    61,    65,    21,    18,    62,    66,    22</elem>
			<elem id="14">    18,    62,    66,    22,    19,    63,    67,    23</elem>
			<elem id="15">    19,    63,    67,    23,    20,    64,    68,    24</elem>
			<elem id="16">    21,    65,    69,    25,    22,    66,    70,    26</elem>
			<elem id="17">    22,    66,    70,    26,    23,    67,    71,    27</elem>
			<elem id="18">    23,    67,    71,    27,    24,    68,    72,    28</elem>
			<elem id="19">    25,    69,    73,    29,    26,    70,    74,    30</elem>
			<elem id="20">    26,    70,    74,    30,    27,    71,    75,    31</elem>
<!-- ... 280 like lines cut -->
		</Elements>
		<NodeSet name="FixedNodeset01">
			<node id="1"/>
			<node id="2"/>
			<node id="3"/>
			<node id="4"/>
			<node id="5"/>
			<node id="6"/>
			<node id="7"/>
			<node id="8"/>
			<node id="9"/>
			<node id="10"/>
			<node id="11"/>
			<node id="12"/>
			<node id="13"/>
			<node id="14"/>
			<node id="15"/>
			<node id="16"/>
			<node id="17"/>
			<node id="18"/>
			<node id="19"/>
			<node id="20"/>
<!-- ... 24 like lines cut -->
		</NodeSet>
		<NodeSet name="FixedNodeset02">
			<node id="1"/>
			<node id="2"/>
			<node id="3"/>
			<node id="4"/>
			<node id="45"/>
			<node id="46"/>
			<node id="47"/>
			<node id="48"/>
			<node id="89"/>
			<node id="90"/>
			<node id="91"/>
			<node id="92"/>
			<node id="133"/>
			<node id="134"/>
			<node id="135"/>
			<node id="136"/>
			<node id="177"/>
			<node id="178"/>
			<node id="179"/>
			<node id="180"/>
<!-- ... 24 like lines cut -->
		</NodeSet>
		<NodeSet name="FixedNodeset03">
			<node id="1"/>
			<node id="5"/>
			<node id="9"/>
			<node id="13"/>
			<node id="17"/>
			<node id="21"/>
			<node id="25"/>
			<node id="29"/>
			<node id="33"/>
			<node id="37"/>
			<node id="41"/>
			<node id="45"/>
			<node id="49"/>
			<node id="53"/>
			<node id="57"/>
			<node id="61"/>
			<node id="65"/>
			<node id="69"/>
			<node id="73"/>
			<node id="77"/>
<!-- ... 101 like lines cut -->
		</NodeSet>
	</Geometry>
	<Boundary>
		<fix bc="x" set="FixedNodeset01"/>
		<fix bc="y" set="FixedNodeset02"/>
		<fix bc="z" set="FixedNodeset03"/>
	</Boundary>
	<Output>
		<plotfile type="febio">
			<var type="displacement"/>
			<var type="stress"/>
			<var type="angio stress"/>
			<var type="angio effective stress"/>
		</plotfile>
		<logfile>
			<element_data data="E2">283</element_data>
		</logfile>
	</Output>
</febio_spec>
