<?xml version="1.0" encoding="ISO-8859-1"?>
<!--
Problem Description:
	PreStrain Plugin using the in-situ stretch uncoupled elastic material and a prescribed pre_stretch.  This is the same as the example file test9_is.feb.
Main Features:
	Plugin
	PreStrain
Secondary Features:
	
Materials:
	in-situ stretch uncoupled elastic
	trans iso Mooney-Rivlin
Degrees of Freedom: 468
Results:
	Steps Completed: 1
	Equilibrium Iterations: 5
	Right Hand Evaluations: 6
	Siffness Reformations: 1
	Other:
		The 1st principal stress for element 65 is 10.6994 at time t=1.
Comments:
	
-->
<febio_spec version="2.0">
	<Module type="solid"/>
	<Control>
		<time_steps>1</time_steps>
		<step_size>1</step_size>
		<max_refs>15</max_refs>
		<max_ups>10</max_ups>
		<dtol>0.001</dtol>
		<etol>0.01</etol>
		<rtol>0</rtol>
		<lstol>0.9</lstol>
		<time_stepper>
			<dtmin>0.01</dtmin>
			<dtmax>0.1</dtmax>
			<max_retries>5</max_retries>
			<opt_iter>10</opt_iter>
		</time_stepper>
		<analysis type="static"/>
	</Control>
	<Material>
		<material id="1" name="Material1" type="prestrain elastic"> 
			<density>1</density>
			<prestrain type="in-situ stretch">
				<stretch>1</stretch>
			</prestrain>
			<elastic type="coupled trans-iso Mooney-Rivlin">
				<c1>4.36</c1>
				<c2>0</c2>
				<c3>2.4</c3>
				<c4>30.6</c4>
				<c5>323</c5>
				<k>100</k>
				<lam_max>1.055</lam_max>
			</elastic>
			<k>1000</k>
			<fiber type="local">1,2,4</fiber>
		</material>
	</Material>
	<Geometry>
		<Nodes>
			<node id="1">-0.5,-0.5,0</node>
			<node id="2">-0.5,-0.5,0.2</node>
			<node id="3">-0.5,-0.5,0.4</node>
			<node id="4">-0.5,-0.5,0.6</node>
			<node id="5">-0.5,-0.5,0.8</node>
			<node id="6">-0.5,-0.5,1</node>
			<node id="7">-0.5,-0.3,0</node>
			<node id="8">-0.5,-0.3,0.2</node>
			<node id="9">-0.5,-0.3,0.4</node>
			<node id="10">-0.5,-0.3,0.6</node>
			<node id="11">-0.5,-0.3,0.8</node>
			<node id="12">-0.5,-0.3,1</node>
			<node id="13">-0.5,-0.1,0</node>
			<node id="14">-0.5,-0.1,0.2</node>
			<node id="15">-0.5,-0.1,0.4</node>
			<node id="16">-0.5,-0.1,0.6</node>
			<node id="17">-0.5,-0.1,0.8</node>
			<node id="18">-0.5,-0.1,1</node>
			<node id="19">-0.5,0.1,0</node>
			<node id="20">-0.5,0.1,0.2</node>
<!-- ... 196 like lines cut -->
		</Nodes>
		<Elements type="hex8" mat="1" elset="Part1">
			<elem id="1">     1,    37,    43,     7,     2,    38,    44,     8</elem>
			<elem id="2">     2,    38,    44,     8,     3,    39,    45,     9</elem>
			<elem id="3">     3,    39,    45,     9,     4,    40,    46,    10</elem>
			<elem id="4">     4,    40,    46,    10,     5,    41,    47,    11</elem>
			<elem id="5">     5,    41,    47,    11,     6,    42,    48,    12</elem>
			<elem id="6">     7,    43,    49,    13,     8,    44,    50,    14</elem>
			<elem id="7">     8,    44,    50,    14,     9,    45,    51,    15</elem>
			<elem id="8">     9,    45,    51,    15,    10,    46,    52,    16</elem>
			<elem id="9">    10,    46,    52,    16,    11,    47,    53,    17</elem>
			<elem id="10">    11,    47,    53,    17,    12,    48,    54,    18</elem>
			<elem id="11">    13,    49,    55,    19,    14,    50,    56,    20</elem>
			<elem id="12">    14,    50,    56,    20,    15,    51,    57,    21</elem>
			<elem id="13">    15,    51,    57,    21,    16,    52,    58,    22</elem>
			<elem id="14">    16,    52,    58,    22,    17,    53,    59,    23</elem>
			<elem id="15">    17,    53,    59,    23,    18,    54,    60,    24</elem>
			<elem id="16">    19,    55,    61,    25,    20,    56,    62,    26</elem>
			<elem id="17">    20,    56,    62,    26,    21,    57,    63,    27</elem>
			<elem id="18">    21,    57,    63,    27,    22,    58,    64,    28</elem>
			<elem id="19">    22,    58,    64,    28,    23,    59,    65,    29</elem>
			<elem id="20">    23,    59,    65,    29,    24,    60,    66,    30</elem>
<!-- ... 105 like lines cut -->
		</Elements>
		<ElementData>
			<element id="1"><pre_stretch>1.04358</pre_stretch></element>
			<element id="2"><pre_stretch>1.042</pre_stretch></element>
			<element id="3"><pre_stretch>1.04176</pre_stretch></element>
			<element id="4"><pre_stretch>1.042</pre_stretch></element>
			<element id="5"><pre_stretch>1.04358</pre_stretch></element>
			<element id="6"><pre_stretch>1.042</pre_stretch></element>
			<element id="7"><pre_stretch>1.03969</pre_stretch></element>
			<element id="8"><pre_stretch>1.03891</pre_stretch></element>
			<element id="9"><pre_stretch>1.03969</pre_stretch></element>
			<element id="10"><pre_stretch>1.042</pre_stretch></element>
			<element id="11"><pre_stretch>1.04176</pre_stretch></element>
			<element id="12"><pre_stretch>1.03891</pre_stretch></element>
			<element id="13"><pre_stretch>1.03778</pre_stretch></element>
			<element id="14"><pre_stretch>1.03891</pre_stretch></element>
			<element id="15"><pre_stretch>1.04176</pre_stretch></element>
			<element id="16"><pre_stretch>1.042</pre_stretch></element>
			<element id="17"><pre_stretch>1.03969</pre_stretch></element>
			<element id="18"><pre_stretch>1.03891</pre_stretch></element>
			<element id="19"><pre_stretch>1.03969</pre_stretch></element>
			<element id="20"><pre_stretch>1.042</pre_stretch></element>
<!-- ... 105 like lines cut -->
		</ElementData>
	</Geometry>
	<Boundary>
		<fix bc="xyz">
			<node id="1"/>
			<node id="2"/>
			<node id="3"/>
			<node id="4"/>
			<node id="5"/>
			<node id="6"/>
			<node id="7"/>
			<node id="8"/>
			<node id="9"/>
			<node id="10"/>
			<node id="11"/>
			<node id="12"/>
			<node id="13"/>
			<node id="14"/>
			<node id="15"/>
			<node id="16"/>
			<node id="17"/>
			<node id="18"/>
			<node id="19"/>
			<node id="20"/>
<!-- ... 16 like lines cut -->
		</fix>
		<fix bc="yz">
			<node id="181"/>
			<node id="182"/>
			<node id="183"/>
			<node id="184"/>
			<node id="185"/>
			<node id="186"/>
			<node id="187"/>
			<node id="188"/>
			<node id="189"/>
			<node id="190"/>
			<node id="191"/>
			<node id="192"/>
			<node id="193"/>
			<node id="194"/>
			<node id="195"/>
			<node id="196"/>
			<node id="197"/>
			<node id="198"/>
			<node id="199"/>
			<node id="200"/>
<!-- ... 16 like lines cut -->
		</fix>
		<prescribe bc="x" lc="1">
			<node id="181">1</node>
			<node id="182">1</node>
			<node id="183">1</node>
			<node id="184">1</node>
			<node id="185">1</node>
			<node id="186">1</node>
			<node id="187">1</node>
			<node id="188">1</node>
			<node id="189">1</node>
			<node id="190">1</node>
			<node id="191">1</node>
			<node id="192">1</node>
			<node id="193">1</node>
			<node id="194">1</node>
			<node id="195">1</node>
			<node id="196">1</node>
			<node id="197">1</node>
			<node id="198">1</node>
			<node id="199">1</node>
			<node id="200">1</node>
<!-- ... 16 like lines cut -->
		</prescribe>
	</Boundary>
	<LoadData>
		<loadcurve id="1" type="smooth">
			<point>0,0</point>
			<point>1,0.0</point>
		</loadcurve>
	</LoadData>
	<Output>
		<plotfile type="febio">
			<var type="displacement"/>
			<var type="stress"/>
		</plotfile>
		<logfile>
			<element_data data="s1">65</element_data>
		</logfile>
	</Output>
</febio_spec>
