<?xml version="1.0" encoding="ISO-8859-1"?>
<!--
Problem Description:
	Simulation of an engine with two cylinders and a prescribed rotation of 6.2 radians at
	time t=62 on the crank.
Main Features:
	Rigid Bodies
	Rigid Joints
Secondary Features:
	Prescribed rotation
Materials:
	Neo-Hookean
	Rigid Bodies
Degrees of Freedom: 10431
Results:
	Steps Completed: 62
	Equilibrium Iterations: 339
	Right Hand Evaluations: 574
	Siffness Reformations: 186
	Other:
		The maximum effective strain is 0.639 at time t=46.
Comments:
	
-->
<febio_spec version="2.0">
	<Module type="solid"/>
	<Control>
		<title>Engine</title>
		<time_steps>62</time_steps>
		<step_size>1</step_size>
		<max_refs>15</max_refs>
		<max_ups>10</max_ups>
		<dtol>0.001</dtol>
		<etol>0.01</etol>
		<rtol>0</rtol>
		<lstol>0.9</lstol>
		<analysis type="static"/>
		<optimize_bw>1</optimize_bw>
	</Control>
	<Globals>
		<Constants>
			<T>0</T>
			<R>0</R>
			<Fc>0</Fc>
		</Constants>
	</Globals>
	<Material>
		<material id="1" name="chamber1" type="neo-Hookean">
			<density>1</density>
			<E>1</E>
			<v>0</v>
		</material>
		<material id="2" name="chamber2" type="neo-Hookean">
			<density>1</density>
			<E>1</E>
			<v>0</v>
		</material>
		<material id="3" name="shaft2" type="rigid body">
			<density>1</density>
		</material>
		<material id="4" name="shaft1" type="rigid body">
			<density>1</density>
		</material>
		<material id="5" name="crank" type="rigid body">
			<density>1</density>
			<center_of_mass>0,0,0</center_of_mass>
		</material>
		<material id="6" name="piston1" type="rigid body">
			<density>1</density>
		</material>
		<material id="7" name="piston2" type="rigid body">
			<density>1</density>
		</material>
	</Material>
	<Geometry>
		<Nodes>
			<node id="1"> 4.9718440e-002,-3.5355339e-001,-3.5359309e-001</node>
			<node id="2"> 4.9718440e-002,-2.3570226e-001,-3.5359309e-001</node>
			<node id="3"> 4.9718440e-002,-1.1785113e-001,-3.5359309e-001</node>
			<node id="4"> 4.9718440e-002, 1.3997750e-009,-3.5359309e-001</node>
			<node id="5"> 4.9718440e-002, 1.1785113e-001,-3.5359309e-001</node>
			<node id="6"> 4.9718440e-002, 2.3570226e-001,-3.5359309e-001</node>
			<node id="7"> 4.9718440e-002, 3.5355339e-001,-3.5359309e-001</node>
			<node id="8"> 4.9812288e-002,-3.5355339e-001,-2.3574200e-001</node>
			<node id="9"> 4.9812288e-002,-2.3570226e-001,-2.3574200e-001</node>
			<node id="10"> 4.9812288e-002,-1.1785113e-001,-2.3574200e-001</node>
			<node id="11"> 4.9812288e-002, 1.3997750e-009,-2.3574200e-001</node>
			<node id="12"> 4.9812288e-002, 1.1785113e-001,-2.3574200e-001</node>
			<node id="13"> 4.9812288e-002, 2.3570226e-001,-2.3574200e-001</node>
			<node id="14"> 4.9812288e-002, 3.5355339e-001,-2.3574200e-001</node>
			<node id="15"> 4.9906136e-002,-3.5355339e-001,-1.1789091e-001</node>
			<node id="16"> 4.9906136e-002,-2.3570226e-001,-1.1789091e-001</node>
			<node id="17"> 4.9906136e-002,-1.1785113e-001,-1.1789091e-001</node>
			<node id="18"> 4.9906136e-002, 1.3997750e-009,-1.1789091e-001</node>
			<node id="19"> 4.9906136e-002, 1.1785113e-001,-1.1789091e-001</node>
			<node id="20"> 4.9906136e-002, 2.3570226e-001,-1.1789091e-001</node>
<!-- ... 7704 like lines cut -->
		</Nodes>
		<Elements type="hex8" mat="1" elset="Part11">
			<elem id="1">  5602,  5609,  5610,  5603,  5795,  5802,  5803,  5796</elem>
			<elem id="2">  5603,  5610,  5611,  5604,  5796,  5803,  5804,  5797</elem>
			<elem id="3">  5604,  5611,  5612,  5605,  5797,  5804,  5805,  5798</elem>
			<elem id="4">  5605,  5612,  5613,  5606,  5798,  5805,  5806,  5799</elem>
			<elem id="5">  5606,  5613,  5614,  5607,  5799,  5806,  5807,  5800</elem>
			<elem id="6">  5607,  5614,  5615,  5608,  5800,  5807,  5808,  5801</elem>
			<elem id="7">  5609,  5616,  5617,  5610,  5802,  5809,  5810,  5803</elem>
			<elem id="8">  5610,  5617,  5618,  5611,  5803,  5810,  5811,  5804</elem>
			<elem id="9">  5611,  5618,  5619,  5612,  5804,  5811,  5812,  5805</elem>
			<elem id="10">  5612,  5619,  5620,  5613,  5805,  5812,  5813,  5806</elem>
			<elem id="11">  5613,  5620,  5621,  5614,  5806,  5813,  5814,  5807</elem>
			<elem id="12">  5614,  5621,  5622,  5615,  5807,  5814,  5815,  5808</elem>
			<elem id="13">  5616,  5623,  5624,  5617,  5809,  5816,  5817,  5810</elem>
			<elem id="14">  5617,  5624,  5625,  5618,  5810,  5817,  5818,  5811</elem>
			<elem id="15">  5618,  5625,  5626,  5619,  5811,  5818,  5819,  5812</elem>
			<elem id="16">  5619,  5626,  5627,  5620,  5812,  5819,  5820,  5813</elem>
			<elem id="17">  5620,  5627,  5628,  5621,  5813,  5820,  5821,  5814</elem>
			<elem id="18">  5621,  5628,  5629,  5622,  5814,  5821,  5822,  5815</elem>
			<elem id="19">  5623,  5630,  5631,  5624,  5816,  5823,  5824,  5817</elem>
			<elem id="20">  5624,  5631,  5632,  5625,  5817,  5824,  5825,  5818</elem>
<!-- ... 1780 like lines cut -->
		</Elements>
		<Elements type="hex8" mat="2" elset="Part12">
			<elem id="1801">  3479,  3486,  3487,  3480,  3672,  3679,  3680,  3673</elem>
			<elem id="1802">  3480,  3487,  3488,  3481,  3673,  3680,  3681,  3674</elem>
			<elem id="1803">  3481,  3488,  3489,  3482,  3674,  3681,  3682,  3675</elem>
			<elem id="1804">  3482,  3489,  3490,  3483,  3675,  3682,  3683,  3676</elem>
			<elem id="1805">  3483,  3490,  3491,  3484,  3676,  3683,  3684,  3677</elem>
			<elem id="1806">  3484,  3491,  3492,  3485,  3677,  3684,  3685,  3678</elem>
			<elem id="1807">  3486,  3493,  3494,  3487,  3679,  3686,  3687,  3680</elem>
			<elem id="1808">  3487,  3494,  3495,  3488,  3680,  3687,  3688,  3681</elem>
			<elem id="1809">  3488,  3495,  3496,  3489,  3681,  3688,  3689,  3682</elem>
			<elem id="1810">  3489,  3496,  3497,  3490,  3682,  3689,  3690,  3683</elem>
			<elem id="1811">  3490,  3497,  3498,  3491,  3683,  3690,  3691,  3684</elem>
			<elem id="1812">  3491,  3498,  3499,  3492,  3684,  3691,  3692,  3685</elem>
			<elem id="1813">  3493,  3500,  3501,  3494,  3686,  3693,  3694,  3687</elem>
			<elem id="1814">  3494,  3501,  3502,  3495,  3687,  3694,  3695,  3688</elem>
			<elem id="1815">  3495,  3502,  3503,  3496,  3688,  3695,  3696,  3689</elem>
			<elem id="1816">  3496,  3503,  3504,  3497,  3689,  3696,  3697,  3690</elem>
			<elem id="1817">  3497,  3504,  3505,  3498,  3690,  3697,  3698,  3691</elem>
			<elem id="1818">  3498,  3505,  3506,  3499,  3691,  3698,  3699,  3692</elem>
			<elem id="1819">  3500,  3507,  3508,  3501,  3693,  3700,  3701,  3694</elem>
			<elem id="1820">  3501,  3508,  3509,  3502,  3694,  3701,  3702,  3695</elem>
<!-- ... 1780 like lines cut -->
		</Elements>
		<Elements type="hex8" mat="3" elset="Part13">
			<elem id="3601">  3463,  3467,  3469,  3465,  3464,  3468,  3470,  3466</elem>
		</Elements>
		<Elements type="hex8" mat="4" elset="Part14">
			<elem id="3602">  3471,  3475,  3477,  3473,  3472,  3476,  3478,  3474</elem>
		</Elements>
		<Elements type="hex8" mat="5" elset="Part15">
			<elem id="3603">     1,     8,     9,     2,   194,   201,   202,   195</elem>
			<elem id="3604">     2,     9,    10,     3,   195,   202,   203,   196</elem>
			<elem id="3605">     3,    10,    11,     4,   196,   203,   204,   197</elem>
			<elem id="3606">     4,    11,    12,     5,   197,   204,   205,   198</elem>
			<elem id="3607">     5,    12,    13,     6,   198,   205,   206,   199</elem>
			<elem id="3608">     6,    13,    14,     7,   199,   206,   207,   200</elem>
			<elem id="3609">     8,    15,    16,     9,   201,   208,   209,   202</elem>
			<elem id="3610">     9,    16,    17,    10,   202,   209,   210,   203</elem>
			<elem id="3611">    10,    17,    18,    11,   203,   210,   211,   204</elem>
			<elem id="3612">    11,    18,    19,    12,   204,   211,   212,   205</elem>
			<elem id="3613">    12,    19,    20,    13,   205,   212,   213,   206</elem>
			<elem id="3614">    13,    20,    21,    14,   206,   213,   214,   207</elem>
			<elem id="3615">    15,    22,    23,    16,   208,   215,   216,   209</elem>
			<elem id="3616">    16,    23,    24,    17,   209,   216,   217,   210</elem>
			<elem id="3617">    17,    24,    25,    18,   210,   217,   218,   211</elem>
			<elem id="3618">    18,    25,    26,    19,   211,   218,   219,   212</elem>
			<elem id="3619">    19,    26,    27,    20,   212,   219,   220,   213</elem>
			<elem id="3620">    20,    27,    28,    21,   213,   220,   221,   214</elem>
			<elem id="3621">    22,    29,    30,    23,   215,   222,   223,   216</elem>
			<elem id="3622">    23,    30,    31,    24,   216,   223,   224,   217</elem>
<!-- ... 1184 like lines cut -->
		</Elements>
		<Elements type="hex8" mat="6" elset="Part16">
			<elem id="4807">  3077,  3084,  3085,  3078,  3270,  3277,  3278,  3271</elem>
			<elem id="4808">  3078,  3085,  3086,  3079,  3271,  3278,  3279,  3272</elem>
			<elem id="4809">  3079,  3086,  3087,  3080,  3272,  3279,  3280,  3273</elem>
			<elem id="4810">  3080,  3087,  3088,  3081,  3273,  3280,  3281,  3274</elem>
			<elem id="4811">  3081,  3088,  3089,  3082,  3274,  3281,  3282,  3275</elem>
			<elem id="4812">  3082,  3089,  3090,  3083,  3275,  3282,  3283,  3276</elem>
			<elem id="4813">  3084,  3091,  3092,  3085,  3277,  3284,  3285,  3278</elem>
			<elem id="4814">  3085,  3092,  3093,  3086,  3278,  3285,  3286,  3279</elem>
			<elem id="4815">  3086,  3093,  3094,  3087,  3279,  3286,  3287,  3280</elem>
			<elem id="4816">  3087,  3094,  3095,  3088,  3280,  3287,  3288,  3281</elem>
			<elem id="4817">  3088,  3095,  3096,  3089,  3281,  3288,  3289,  3282</elem>
			<elem id="4818">  3089,  3096,  3097,  3090,  3282,  3289,  3290,  3283</elem>
			<elem id="4819">  3091,  3098,  3099,  3092,  3284,  3291,  3292,  3285</elem>
			<elem id="4820">  3092,  3099,  3100,  3093,  3285,  3292,  3293,  3286</elem>
			<elem id="4821">  3093,  3100,  3101,  3094,  3286,  3293,  3294,  3287</elem>
			<elem id="4822">  3094,  3101,  3102,  3095,  3287,  3294,  3295,  3288</elem>
			<elem id="4823">  3095,  3102,  3103,  3096,  3288,  3295,  3296,  3289</elem>
			<elem id="4824">  3096,  3103,  3104,  3097,  3289,  3296,  3297,  3290</elem>
			<elem id="4825">  3098,  3105,  3106,  3099,  3291,  3298,  3299,  3292</elem>
			<elem id="4826">  3099,  3106,  3107,  3100,  3292,  3299,  3300,  3293</elem>
<!-- ... 160 like lines cut -->
		</Elements>
		<Elements type="hex8" mat="7" elset="Part17">
			<elem id="4987">  2691,  2698,  2699,  2692,  2884,  2891,  2892,  2885</elem>
			<elem id="4988">  2692,  2699,  2700,  2693,  2885,  2892,  2893,  2886</elem>
			<elem id="4989">  2693,  2700,  2701,  2694,  2886,  2893,  2894,  2887</elem>
			<elem id="4990">  2694,  2701,  2702,  2695,  2887,  2894,  2895,  2888</elem>
			<elem id="4991">  2695,  2702,  2703,  2696,  2888,  2895,  2896,  2889</elem>
			<elem id="4992">  2696,  2703,  2704,  2697,  2889,  2896,  2897,  2890</elem>
			<elem id="4993">  2698,  2705,  2706,  2699,  2891,  2898,  2899,  2892</elem>
			<elem id="4994">  2699,  2706,  2707,  2700,  2892,  2899,  2900,  2893</elem>
			<elem id="4995">  2700,  2707,  2708,  2701,  2893,  2900,  2901,  2894</elem>
			<elem id="4996">  2701,  2708,  2709,  2702,  2894,  2901,  2902,  2895</elem>
			<elem id="4997">  2702,  2709,  2710,  2703,  2895,  2902,  2903,  2896</elem>
			<elem id="4998">  2703,  2710,  2711,  2704,  2896,  2903,  2904,  2897</elem>
			<elem id="4999">  2705,  2712,  2713,  2706,  2898,  2905,  2906,  2899</elem>
			<elem id="5000">  2706,  2713,  2714,  2707,  2899,  2906,  2907,  2900</elem>
			<elem id="5001">  2707,  2714,  2715,  2708,  2900,  2907,  2908,  2901</elem>
			<elem id="5002">  2708,  2715,  2716,  2709,  2901,  2908,  2909,  2902</elem>
			<elem id="5003">  2709,  2716,  2717,  2710,  2902,  2909,  2910,  2903</elem>
			<elem id="5004">  2710,  2717,  2718,  2711,  2903,  2910,  2911,  2904</elem>
			<elem id="5005">  2712,  2719,  2720,  2713,  2905,  2912,  2913,  2906</elem>
			<elem id="5006">  2713,  2720,  2721,  2714,  2906,  2913,  2914,  2907</elem>
<!-- ... 160 like lines cut -->
		</Elements>
	</Geometry>
	<Boundary>
		<fix bc="z">
			<node id="5409"/>
			<node id="5410"/>
			<node id="5411"/>
			<node id="5412"/>
			<node id="5413"/>
			<node id="5414"/>
			<node id="5415"/>
			<node id="5416"/>
			<node id="5417"/>
			<node id="5418"/>
			<node id="5419"/>
			<node id="5420"/>
			<node id="5421"/>
			<node id="5422"/>
			<node id="5423"/>
			<node id="5424"/>
			<node id="5425"/>
			<node id="5426"/>
			<node id="5427"/>
			<node id="5428"/>
<!-- ... 366 like lines cut -->
		</fix>
		<fix bc="y">
			<node id="5409"/>
			<node id="5410"/>
			<node id="5411"/>
			<node id="5412"/>
			<node id="5413"/>
			<node id="5414"/>
			<node id="5415"/>
			<node id="5416"/>
			<node id="5417"/>
			<node id="5418"/>
			<node id="5419"/>
			<node id="5420"/>
			<node id="5421"/>
			<node id="5422"/>
			<node id="5423"/>
			<node id="5424"/>
			<node id="5425"/>
			<node id="5426"/>
			<node id="5427"/>
			<node id="5428"/>
<!-- ... 366 like lines cut -->
		</fix>
		<fix bc="x">
			<node id="5409"/>
			<node id="5410"/>
			<node id="5411"/>
			<node id="5412"/>
			<node id="5413"/>
			<node id="5414"/>
			<node id="5415"/>
			<node id="5416"/>
			<node id="5417"/>
			<node id="5418"/>
			<node id="5419"/>
			<node id="5420"/>
			<node id="5421"/>
			<node id="5422"/>
			<node id="5423"/>
			<node id="5424"/>
			<node id="5425"/>
			<node id="5426"/>
			<node id="5427"/>
			<node id="5428"/>
<!-- ... 366 like lines cut -->
		</fix>
	</Boundary>
	<Contact>
		<contact type="rigid">
			<node id="5602" rb="6"></node>
			<node id="5603" rb="6"></node>
			<node id="5604" rb="6"></node>
			<node id="5605" rb="6"></node>
			<node id="5606" rb="6"></node>
			<node id="5607" rb="6"></node>
			<node id="5608" rb="6"></node>
			<node id="5609" rb="6"></node>
			<node id="5610" rb="6"></node>
			<node id="5611" rb="6"></node>
			<node id="5612" rb="6"></node>
			<node id="5613" rb="6"></node>
			<node id="5614" rb="6"></node>
			<node id="5615" rb="6"></node>
			<node id="5616" rb="6"></node>
			<node id="5617" rb="6"></node>
			<node id="5618" rb="6"></node>
			<node id="5619" rb="6"></node>
			<node id="5620" rb="6"></node>
			<node id="5621" rb="6"></node>
<!-- ... 173 like lines cut -->
		</contact>
		<contact type="rigid">
			<node id="3479" rb="7"></node>
			<node id="3480" rb="7"></node>
			<node id="3481" rb="7"></node>
			<node id="3482" rb="7"></node>
			<node id="3483" rb="7"></node>
			<node id="3484" rb="7"></node>
			<node id="3485" rb="7"></node>
			<node id="3486" rb="7"></node>
			<node id="3487" rb="7"></node>
			<node id="3488" rb="7"></node>
			<node id="3489" rb="7"></node>
			<node id="3490" rb="7"></node>
			<node id="3491" rb="7"></node>
			<node id="3492" rb="7"></node>
			<node id="3493" rb="7"></node>
			<node id="3494" rb="7"></node>
			<node id="3495" rb="7"></node>
			<node id="3496" rb="7"></node>
			<node id="3497" rb="7"></node>
			<node id="3498" rb="7"></node>
<!-- ... 173 like lines cut -->
		</contact>
	</Contact>
	<Constraints>
		<rigid_body mat="3">
			<fixed bc="x"/>
			<fixed bc="Ry"/>
			<fixed bc="Rz"/>
		</rigid_body>
		<rigid_body mat="4">
			<fixed bc="x"/>
			<fixed bc="Ry"/>
			<fixed bc="Rz"/>
		</rigid_body>
		<rigid_body mat="5">
			<fixed bc="x"/>
			<fixed bc="y"/>
			<fixed bc="z"/>
			<fixed bc="Ry"/>
			<fixed bc="Rz"/>
		</rigid_body>
		<rigid_body mat="5">
			<prescribed bc="Rx" lc="1">1</prescribed>
		</rigid_body>
		<rigid_body mat="6">
			<fixed bc="x"/>
			<fixed bc="y"/>
			<fixed bc="Rx"/>
			<fixed bc="Ry"/>
			<fixed bc="Rz"/>
		</rigid_body>
		<rigid_body mat="7">
			<fixed bc="x"/>
			<fixed bc="y"/>
			<fixed bc="Rx"/>
			<fixed bc="Ry"/>
			<fixed bc="Rz"/>
		</rigid_body>
		<constraint type="rigid joint">
			<tolerance>0.1</tolerance>
			<penalty>10</penalty>
			<body_a>5</body_a>
			<body_b>4</body_b>
			<joint>-0.868,0.419154,0</joint>
		</constraint>
		<constraint type="rigid joint">
			<tolerance>0.1</tolerance>
			<penalty>10</penalty>
			<body_a>5</body_a>
			<body_b>3</body_b>
			<joint>-0.2784,-0.34,0</joint>
		</constraint>
		<constraint type="rigid joint">
			<tolerance>0.1</tolerance>
			<penalty>10</penalty>
			<body_a>6</body_a>
			<body_b>4</body_b>
			<joint>-0.85,0,1.4</joint>
		</constraint>
		<constraint type="rigid joint">
			<tolerance>0.1</tolerance>
			<penalty>10</penalty>
			<body_a>7</body_a>
			<body_b>3</body_b>
			<joint>-0.25,0,1.4</joint>
		</constraint>
	</Constraints>
	<LoadData>
		<loadcurve id="1" type="linear">
			<loadpoint>0,0</loadpoint>
			<loadpoint>62,6.2</loadpoint>
		</loadcurve>
	</LoadData>
	<Output>
		<plotfile type="febio"></plotfile>
		<logfile>
			<element_data data="Ez">2328</element_data>
		</logfile>
	</Output>
</febio_spec>
