<?xml version="1.0" encoding="ISO-8859-1"?>
<!--
Problem Description:
	Cylindrical joint with precribed joint rotation and translation in a static analysis.
Main Features:
	Rigid cylindrical joint
	Prescribed rotation and translation of cylindrical joint
Secondary Features:

Materials:
	rigid body
Degrees of Freedom: 6
Results:
	Steps Completed: 10
	Equilibrium Iterations: 20
	Right Hand Evaluations: 30
	Siffness Reformations: 20
	Other:

Comments:
	
-->
<febio_spec version="2.0">
	<Module type="solid"/>
	<Control>
		<time_steps>10</time_steps>
		<step_size>0.1</step_size>
		<max_refs>15</max_refs>
		<max_ups>0</max_ups>
		<dtol>0.001</dtol>
		<etol>0.01</etol>
		<rtol>0</rtol>
		<lstol>0.9</lstol>
		<time_stepper>
			<dtmin>0.01</dtmin>
			<dtmax>0.1</dtmax>
			<max_retries>5</max_retries>
			<opt_iter>10</opt_iter>
		</time_stepper>
		<analysis type="static"/>
		<symmetric_stiffness>0</symmetric_stiffness>
	</Control>
	<Globals>
		<Constants>
			<T>0</T>
			<R>0</R>
			<Fc>0</Fc>
		</Constants>
	</Globals>
	<Material>
		<material id="1" name="Axle" type="rigid body">
			<density>1</density>
			<center_of_mass>0,0,0</center_of_mass>
		</material>
		<material id="2" name="Box" type="rigid body">
			<density>1</density>
		</material>
	</Material>
	<Geometry>
		<Nodes>
			<node id="1"> -3.5355339e-01, -3.5355339e-01,  0.0000000e+00</node>
			<node id="2">  0.0000000e+00, -3.5355339e-01,  0.0000000e+00</node>
			<node id="3">  3.5355339e-01, -3.5355339e-01,  0.0000000e+00</node>
			<node id="4"> -3.5355339e-01,  0.0000000e+00,  0.0000000e+00</node>
			<node id="5">  0.0000000e+00,  0.0000000e+00,  0.0000000e+00</node>
			<node id="6">  3.5355339e-01,  0.0000000e+00,  0.0000000e+00</node>
			<node id="7"> -3.5355339e-01,  3.5355339e-01,  0.0000000e+00</node>
			<node id="8">  0.0000000e+00,  3.5355339e-01,  0.0000000e+00</node>
			<node id="9">  3.5355339e-01,  3.5355339e-01,  0.0000000e+00</node>
			<node id="10"> -3.5355339e-01, -3.5355339e-01,  1.0000000e+01</node>
			<node id="11">  0.0000000e+00, -3.5355339e-01,  1.0000000e+01</node>
			<node id="12">  3.5355339e-01, -3.5355339e-01,  1.0000000e+01</node>
			<node id="13"> -3.5355339e-01,  0.0000000e+00,  1.0000000e+01</node>
			<node id="14">  0.0000000e+00,  0.0000000e+00,  1.0000000e+01</node>
			<node id="15">  3.5355339e-01,  0.0000000e+00,  1.0000000e+01</node>
			<node id="16"> -3.5355339e-01,  3.5355339e-01,  1.0000000e+01</node>
			<node id="17">  0.0000000e+00,  3.5355339e-01,  1.0000000e+01</node>
			<node id="18">  3.5355339e-01,  3.5355339e-01,  1.0000000e+01</node>
			<node id="19"> -7.0710679e-01, -7.0710677e-01,  0.0000000e+00</node>
			<node id="20">  0.0000000e+00, -1.0000000e+00,  0.0000000e+00</node>
<!-- ... 406 like lines cut -->
		</Nodes>
		<Elements type="hex8" mat="1" elset="Part1">
			<elem id="1">     1,    35,   209,    55,    10,    40,   212,    56</elem>
			<elem id="2">    35,    36,   210,   209,    40,    39,   213,   212</elem>
			<elem id="3">    36,    37,   211,   210,    39,    38,   214,   213</elem>
			<elem id="4">    37,     2,    41,   211,    38,    11,    46,   214</elem>
			<elem id="5">    55,   209,   206,    54,    56,   212,   215,    57</elem>
			<elem id="6">   209,   210,   207,   206,   212,   213,   216,   215</elem>
			<elem id="7">   210,   211,   208,   207,   213,   214,   217,   216</elem>
			<elem id="8">   211,    41,    42,   208,   214,    46,    45,   217</elem>
			<elem id="9">    54,   206,   203,    53,    57,   215,   218,    58</elem>
			<elem id="10">   206,   207,   204,   203,   215,   216,   219,   218</elem>
			<elem id="11">   207,   208,   205,   204,   216,   217,   220,   219</elem>
			<elem id="12">   208,    42,    43,   205,   217,    45,    44,   220</elem>
			<elem id="13">    53,   203,    49,     4,    58,   218,    50,    13</elem>
			<elem id="14">   203,   204,    48,    49,   218,   219,    51,    50</elem>
			<elem id="15">   204,   205,    47,    48,   219,   220,    52,    51</elem>
			<elem id="16">   205,    43,     5,    47,   220,    44,    14,    52</elem>
			<elem id="17">     2,    59,   227,    41,    11,    64,   230,    46</elem>
			<elem id="18">    59,    60,   228,   227,    64,    63,   231,   230</elem>
			<elem id="19">    60,    61,   229,   228,    63,    62,   232,   231</elem>
			<elem id="20">    61,     3,    65,   229,    62,    12,    70,   232</elem>
<!-- ... 172 like lines cut -->
		</Elements>
		<Elements type="hex8" mat="2" elset="Part2">
			<elem id="193">   419,   423,   425,   421,   420,   424,   426,   422</elem>
		</Elements>
	</Geometry>
	<Boundary>
	</Boundary>
	<Constraints>
		<rigid_body mat="1">
			<fixed bc="x"/>
			<fixed bc="y"/>
			<fixed bc="z"/>
			<fixed bc="Rx"/>
			<fixed bc="Ry"/>
			<fixed bc="Rz"/>
		</rigid_body>
		<constraint type="rigid cylindrical joint" name="Joint01 Axle-Box cylindrical joint">
			<tolerance>0</tolerance>
			<gaptol>1e-4</gaptol>
			<angtol>1e-4</angtol>
			<force_penalty>1e12</force_penalty>
			<moment_penalty>1e12</moment_penalty>
			<body_a>1</body_a>
			<body_b>2</body_b>
			<joint_origin>0,0,0</joint_origin>
			<joint_axis>0,0,1</joint_axis>
			<transverse_axis>1,0,0</transverse_axis>
			<prescribed_translation>1</prescribed_translation>
			<translation lc="1">10</translation>
			<prescribed_rotation>1</prescribed_rotation>
			<rotation lc="2">1.570796327</rotation>
		</constraint>
	</Constraints>
	<LoadData>
		<loadcurve id="1" type="linear">
			<point>0,0</point>
			<point>1,1</point>
		</loadcurve>
		<loadcurve id="2" type="linear">
			<point>0,0</point>
			<point>1,1</point>
		</loadcurve>
	</LoadData>
	<Output>
		<plotfile type="febio">
			<var type="acceleration"/>
			<var type="displacement"/>
			<var type="reaction forces"/>
			<var type="rigid force"/>
			<var type="rigid torque"/>
			<var type="rigid position"/>
			<var type="rigid velocity"/>
			<var type="rigid acceleration"/>
			<var type="rigid angular position"/>
			<var type="rigid angular velocity"/>
			<var type="rigid angular acceleration"/>
			<var type="rigid kinetic energy"/>
			<var type="stress"/>
			<var type="velocity"/>
		</plotfile>
		<logfile>
			<rigid_body_data data="qz">2</rigid_body_data>
		</logfile>
	</Output>
</febio_spec>
