<?xml version="1.0" encoding="ISO-8859-1"?>
<!--
Problem Description:
	A 10x10 element shell plate is constrained in x,y,z on the edges with a z-force
	of 0 units at time t=0 to 0.0005 units at time t=1 applied to the center node.
Main Features:
	Shells
Secondary Features:
	Nodal Force
Materials:
	Neo-Hookean
Degrees of Freedom: 522
Results
	Steps Completed: 10
	Equilibrium Iterations: 49
	Right Hand Evaluations: 60
	Siffness Reformations: 10
	Other:
		The center node has a z-displacement of 0.242 at time t=1.
Comments:
	
-->
<febio_spec version="2.0">
	<Module type="solid"/>
	<Control>
		<title>Shell with Force on Center Node</title>
		<time_steps>10</time_steps>
		<step_size>0.1</step_size>
		<max_refs>15</max_refs>
		<max_ups>10</max_ups>
		<dtol>0.001</dtol>
		<etol>0.01</etol>
		<rtol>0</rtol>
		<lstol>0.9</lstol>
		<time_stepper>
			<dtmin>0.01</dtmin>
			<dtmax>0.1</dtmax>
			<max_retries>5</max_retries>
			<opt_iter>10</opt_iter>
		</time_stepper>
		<analysis type="static"/>
	</Control>
	<Globals>
		<Constants>
			<T>0</T>
			<R>0</R>
			<Fc>0</Fc>
		</Constants>
	</Globals>
	<Material>
		<material id="1" name="Material 3" type="neo-Hookean">
			<density>1</density>
			<E>1</E>
			<v>0</v>
		</material>
	</Material>
	<Geometry>
		<Nodes>
			<node id="1">-5.0000000e-001,-5.0000000e-001, 0.0000000e+000</node>
			<node id="2">-5.0000000e-001,-4.0000000e-001, 0.0000000e+000</node>
			<node id="3">-5.0000000e-001,-3.0000000e-001, 0.0000000e+000</node>
			<node id="4">-5.0000000e-001,-2.0000000e-001, 0.0000000e+000</node>
			<node id="5">-5.0000000e-001,-1.0000000e-001, 0.0000000e+000</node>
			<node id="6">-5.0000000e-001, 0.0000000e+000, 0.0000000e+000</node>
			<node id="7">-5.0000000e-001, 1.0000000e-001, 0.0000000e+000</node>
			<node id="8">-5.0000000e-001, 2.0000000e-001, 0.0000000e+000</node>
			<node id="9">-5.0000000e-001, 3.0000000e-001, 0.0000000e+000</node>
			<node id="10">-5.0000000e-001, 4.0000000e-001, 0.0000000e+000</node>
			<node id="11">-5.0000000e-001, 5.0000000e-001, 0.0000000e+000</node>
			<node id="12">-4.0000000e-001,-5.0000000e-001, 0.0000000e+000</node>
			<node id="13">-4.0000000e-001,-4.0000000e-001, 0.0000000e+000</node>
			<node id="14">-4.0000000e-001,-3.0000000e-001, 0.0000000e+000</node>
			<node id="15">-4.0000000e-001,-2.0000000e-001, 0.0000000e+000</node>
			<node id="16">-4.0000000e-001,-1.0000000e-001, 0.0000000e+000</node>
			<node id="17">-4.0000000e-001, 0.0000000e+000, 0.0000000e+000</node>
			<node id="18">-4.0000000e-001, 1.0000000e-001, 0.0000000e+000</node>
			<node id="19">-4.0000000e-001, 2.0000000e-001, 0.0000000e+000</node>
			<node id="20">-4.0000000e-001, 3.0000000e-001, 0.0000000e+000</node>
<!-- ... 101 like lines cut -->
		</Nodes>
		<Elements type="quad4" mat="1" elset="Part39">
			<elem id="1">     1,    12,    13,     2</elem>
			<elem id="2">     2,    13,    14,     3</elem>
			<elem id="3">     3,    14,    15,     4</elem>
			<elem id="4">     4,    15,    16,     5</elem>
			<elem id="5">     5,    16,    17,     6</elem>
			<elem id="6">     6,    17,    18,     7</elem>
			<elem id="7">     7,    18,    19,     8</elem>
			<elem id="8">     8,    19,    20,     9</elem>
			<elem id="9">     9,    20,    21,    10</elem>
			<elem id="10">    10,    21,    22,    11</elem>
			<elem id="11">    12,    23,    24,    13</elem>
			<elem id="12">    13,    24,    25,    14</elem>
			<elem id="13">    14,    25,    26,    15</elem>
			<elem id="14">    15,    26,    27,    16</elem>
			<elem id="15">    16,    27,    28,    17</elem>
			<elem id="16">    17,    28,    29,    18</elem>
			<elem id="17">    18,    29,    30,    19</elem>
			<elem id="18">    19,    30,    31,    20</elem>
			<elem id="19">    20,    31,    32,    21</elem>
			<elem id="20">    21,    32,    33,    22</elem>
<!-- ... 80 like lines cut -->
		</Elements>
		<ElementData>
			<element id="1">
				<thickness>0.01,0.01,0.01,0.01</thickness>
			</element>
			<element id="2">
				<thickness>0.01,0.01,0.01,0.01</thickness>
			</element>
			<element id="3">
				<thickness>0.01,0.01,0.01,0.01</thickness>
			</element>
			<element id="4">
				<thickness>0.01,0.01,0.01,0.01</thickness>
			</element>
			<element id="5">
				<thickness>0.01,0.01,0.01,0.01</thickness>
			</element>
			<element id="6">
				<thickness>0.01,0.01,0.01,0.01</thickness>
			</element>
			<element id="7">
				<thickness>0.01,0.01,0.01,0.01</thickness>
			</element>
			<element id="8">
				<thickness>0.01,0.01,0.01,0.01</thickness>
			</element>
			<element id="9">
				<thickness>0.01,0.01,0.01,0.01</thickness>
			</element>
			<element id="10">
				<thickness>0.01,0.01,0.01,0.01</thickness>
			</element>
			<element id="11">
				<thickness>0.01,0.01,0.01,0.01</thickness>
			</element>
			<element id="12">
				<thickness>0.01,0.01,0.01,0.01</thickness>
			</element>
			<element id="13">
				<thickness>0.01,0.01,0.01,0.01</thickness>
			</element>
			<element id="14">
				<thickness>0.01,0.01,0.01,0.01</thickness>
			</element>
			<element id="15">
				<thickness>0.01,0.01,0.01,0.01</thickness>
			</element>
			<element id="16">
				<thickness>0.01,0.01,0.01,0.01</thickness>
			</element>
			<element id="17">
				<thickness>0.01,0.01,0.01,0.01</thickness>
			</element>
			<element id="18">
				<thickness>0.01,0.01,0.01,0.01</thickness>
			</element>
			<element id="19">
				<thickness>0.01,0.01,0.01,0.01</thickness>
			</element>
			<element id="20">
				<thickness>0.01,0.01,0.01,0.01</thickness>
			</element>
			<element id="21">
				<thickness>0.01,0.01,0.01,0.01</thickness>
			</element>
			<element id="22">
				<thickness>0.01,0.01,0.01,0.01</thickness>
			</element>
			<element id="23">
				<thickness>0.01,0.01,0.01,0.01</thickness>
			</element>
			<element id="24">
				<thickness>0.01,0.01,0.01,0.01</thickness>
			</element>
			<element id="25">
				<thickness>0.01,0.01,0.01,0.01</thickness>
			</element>
			<element id="26">
				<thickness>0.01,0.01,0.01,0.01</thickness>
			</element>
			<element id="27">
				<thickness>0.01,0.01,0.01,0.01</thickness>
			</element>
			<element id="28">
				<thickness>0.01,0.01,0.01,0.01</thickness>
			</element>
			<element id="29">
				<thickness>0.01,0.01,0.01,0.01</thickness>
			</element>
			<element id="30">
				<thickness>0.01,0.01,0.01,0.01</thickness>
			</element>
			<element id="31">
				<thickness>0.01,0.01,0.01,0.01</thickness>
			</element>
			<element id="32">
				<thickness>0.01,0.01,0.01,0.01</thickness>
			</element>
			<element id="33">
				<thickness>0.01,0.01,0.01,0.01</thickness>
			</element>
			<element id="34">
				<thickness>0.01,0.01,0.01,0.01</thickness>
			</element>
			<element id="35">
				<thickness>0.01,0.01,0.01,0.01</thickness>
			</element>
			<element id="36">
				<thickness>0.01,0.01,0.01,0.01</thickness>
			</element>
			<element id="37">
				<thickness>0.01,0.01,0.01,0.01</thickness>
			</element>
			<element id="38">
				<thickness>0.01,0.01,0.01,0.01</thickness>
			</element>
			<element id="39">
				<thickness>0.01,0.01,0.01,0.01</thickness>
			</element>
			<element id="40">
				<thickness>0.01,0.01,0.01,0.01</thickness>
			</element>
			<element id="41">
				<thickness>0.01,0.01,0.01,0.01</thickness>
			</element>
			<element id="42">
				<thickness>0.01,0.01,0.01,0.01</thickness>
			</element>
			<element id="43">
				<thickness>0.01,0.01,0.01,0.01</thickness>
			</element>
			<element id="44">
				<thickness>0.01,0.01,0.01,0.01</thickness>
			</element>
			<element id="45">
				<thickness>0.01,0.01,0.01,0.01</thickness>
			</element>
			<element id="46">
				<thickness>0.01,0.01,0.01,0.01</thickness>
			</element>
			<element id="47">
				<thickness>0.01,0.01,0.01,0.01</thickness>
			</element>
			<element id="48">
				<thickness>0.01,0.01,0.01,0.01</thickness>
			</element>
			<element id="49">
				<thickness>0.01,0.01,0.01,0.01</thickness>
			</element>
			<element id="50">
				<thickness>0.01,0.01,0.01,0.01</thickness>
			</element>
			<element id="51">
				<thickness>0.01,0.01,0.01,0.01</thickness>
			</element>
			<element id="52">
				<thickness>0.01,0.01,0.01,0.01</thickness>
			</element>
			<element id="53">
				<thickness>0.01,0.01,0.01,0.01</thickness>
			</element>
			<element id="54">
				<thickness>0.01,0.01,0.01,0.01</thickness>
			</element>
			<element id="55">
				<thickness>0.01,0.01,0.01,0.01</thickness>
			</element>
			<element id="56">
				<thickness>0.01,0.01,0.01,0.01</thickness>
			</element>
			<element id="57">
				<thickness>0.01,0.01,0.01,0.01</thickness>
			</element>
			<element id="58">
				<thickness>0.01,0.01,0.01,0.01</thickness>
			</element>
			<element id="59">
				<thickness>0.01,0.01,0.01,0.01</thickness>
			</element>
			<element id="60">
				<thickness>0.01,0.01,0.01,0.01</thickness>
			</element>
			<element id="61">
				<thickness>0.01,0.01,0.01,0.01</thickness>
			</element>
			<element id="62">
				<thickness>0.01,0.01,0.01,0.01</thickness>
			</element>
			<element id="63">
				<thickness>0.01,0.01,0.01,0.01</thickness>
			</element>
			<element id="64">
				<thickness>0.01,0.01,0.01,0.01</thickness>
			</element>
			<element id="65">
				<thickness>0.01,0.01,0.01,0.01</thickness>
			</element>
			<element id="66">
				<thickness>0.01,0.01,0.01,0.01</thickness>
			</element>
			<element id="67">
				<thickness>0.01,0.01,0.01,0.01</thickness>
			</element>
			<element id="68">
				<thickness>0.01,0.01,0.01,0.01</thickness>
			</element>
			<element id="69">
				<thickness>0.01,0.01,0.01,0.01</thickness>
			</element>
			<element id="70">
				<thickness>0.01,0.01,0.01,0.01</thickness>
			</element>
			<element id="71">
				<thickness>0.01,0.01,0.01,0.01</thickness>
			</element>
			<element id="72">
				<thickness>0.01,0.01,0.01,0.01</thickness>
			</element>
			<element id="73">
				<thickness>0.01,0.01,0.01,0.01</thickness>
			</element>
			<element id="74">
				<thickness>0.01,0.01,0.01,0.01</thickness>
			</element>
			<element id="75">
				<thickness>0.01,0.01,0.01,0.01</thickness>
			</element>
			<element id="76">
				<thickness>0.01,0.01,0.01,0.01</thickness>
			</element>
			<element id="77">
				<thickness>0.01,0.01,0.01,0.01</thickness>
			</element>
			<element id="78">
				<thickness>0.01,0.01,0.01,0.01</thickness>
			</element>
			<element id="79">
				<thickness>0.01,0.01,0.01,0.01</thickness>
			</element>
			<element id="80">
				<thickness>0.01,0.01,0.01,0.01</thickness>
			</element>
			<element id="81">
				<thickness>0.01,0.01,0.01,0.01</thickness>
			</element>
			<element id="82">
				<thickness>0.01,0.01,0.01,0.01</thickness>
			</element>
			<element id="83">
				<thickness>0.01,0.01,0.01,0.01</thickness>
			</element>
			<element id="84">
				<thickness>0.01,0.01,0.01,0.01</thickness>
			</element>
			<element id="85">
				<thickness>0.01,0.01,0.01,0.01</thickness>
			</element>
			<element id="86">
				<thickness>0.01,0.01,0.01,0.01</thickness>
			</element>
			<element id="87">
				<thickness>0.01,0.01,0.01,0.01</thickness>
			</element>
			<element id="88">
				<thickness>0.01,0.01,0.01,0.01</thickness>
			</element>
			<element id="89">
				<thickness>0.01,0.01,0.01,0.01</thickness>
			</element>
			<element id="90">
				<thickness>0.01,0.01,0.01,0.01</thickness>
			</element>
			<element id="91">
				<thickness>0.01,0.01,0.01,0.01</thickness>
			</element>
			<element id="92">
				<thickness>0.01,0.01,0.01,0.01</thickness>
			</element>
			<element id="93">
				<thickness>0.01,0.01,0.01,0.01</thickness>
			</element>
			<element id="94">
				<thickness>0.01,0.01,0.01,0.01</thickness>
			</element>
			<element id="95">
				<thickness>0.01,0.01,0.01,0.01</thickness>
			</element>
			<element id="96">
				<thickness>0.01,0.01,0.01,0.01</thickness>
			</element>
			<element id="97">
				<thickness>0.01,0.01,0.01,0.01</thickness>
			</element>
			<element id="98">
				<thickness>0.01,0.01,0.01,0.01</thickness>
			</element>
			<element id="99">
				<thickness>0.01,0.01,0.01,0.01</thickness>
			</element>
			<element id="100">
				<thickness>0.01,0.01,0.01,0.01</thickness>
			</element>
		</ElementData>
	</Geometry>
	<Boundary>
		<fix bc="sz">
			<node id="1"/>
			<node id="2"/>
			<node id="3"/>
			<node id="4"/>
			<node id="5"/>
			<node id="6"/>
			<node id="7"/>
			<node id="8"/>
			<node id="9"/>
			<node id="10"/>
			<node id="11"/>
			<node id="111"/>
			<node id="112"/>
			<node id="113"/>
			<node id="114"/>
			<node id="115"/>
			<node id="116"/>
			<node id="117"/>
			<node id="118"/>
			<node id="119"/>
			<node id="120"/>
			<node id="121"/>
		</fix>
		<fix bc="sy">
			<node id="1"/>
			<node id="2"/>
			<node id="3"/>
			<node id="4"/>
			<node id="5"/>
			<node id="6"/>
			<node id="7"/>
			<node id="8"/>
			<node id="9"/>
			<node id="10"/>
			<node id="11"/>
			<node id="111"/>
			<node id="112"/>
			<node id="113"/>
			<node id="114"/>
			<node id="115"/>
			<node id="116"/>
			<node id="117"/>
			<node id="118"/>
			<node id="119"/>
			<node id="120"/>
			<node id="121"/>
		</fix>
		<fix bc="sx">
			<node id="1"/>
			<node id="2"/>
			<node id="3"/>
			<node id="4"/>
			<node id="5"/>
			<node id="6"/>
			<node id="7"/>
			<node id="8"/>
			<node id="9"/>
			<node id="10"/>
			<node id="11"/>
			<node id="12"/>
			<node id="22"/>
			<node id="23"/>
			<node id="33"/>
			<node id="34"/>
			<node id="44"/>
			<node id="45"/>
			<node id="55"/>
			<node id="56"/>
<!-- ... 20 like lines cut -->
		</fix>
		<fix bc="z">
			<node id="1"/>
			<node id="2"/>
			<node id="3"/>
			<node id="4"/>
			<node id="5"/>
			<node id="6"/>
			<node id="7"/>
			<node id="8"/>
			<node id="9"/>
			<node id="10"/>
			<node id="11"/>
			<node id="12"/>
			<node id="22"/>
			<node id="23"/>
			<node id="33"/>
			<node id="34"/>
			<node id="44"/>
			<node id="45"/>
			<node id="55"/>
			<node id="56"/>
<!-- ... 20 like lines cut -->
		</fix>
		<fix bc="y">
			<node id="1"/>
			<node id="2"/>
			<node id="3"/>
			<node id="4"/>
			<node id="5"/>
			<node id="6"/>
			<node id="7"/>
			<node id="8"/>
			<node id="9"/>
			<node id="10"/>
			<node id="11"/>
			<node id="12"/>
			<node id="22"/>
			<node id="23"/>
			<node id="33"/>
			<node id="34"/>
			<node id="44"/>
			<node id="45"/>
			<node id="55"/>
			<node id="56"/>
<!-- ... 20 like lines cut -->
		</fix>
		<fix bc="x">
			<node id="1"/>
			<node id="2"/>
			<node id="3"/>
			<node id="4"/>
			<node id="5"/>
			<node id="6"/>
			<node id="7"/>
			<node id="8"/>
			<node id="9"/>
			<node id="10"/>
			<node id="11"/>
			<node id="12"/>
			<node id="22"/>
			<node id="23"/>
			<node id="33"/>
			<node id="34"/>
			<node id="44"/>
			<node id="45"/>
			<node id="55"/>
			<node id="56"/>
<!-- ... 20 like lines cut -->
		</fix>
	</Boundary>
	<Loads>
		<nodal_load bc="z" lc="1">
			<node id="61">1</node>
		</nodal_load>
	</Loads>
	<LoadData>
		<loadcurve id="1" type="linear">
			<loadpoint>0,0</loadpoint>
			<loadpoint>1,0.0005</loadpoint>
		</loadcurve>
	</LoadData>
	<Output>
		<plotfile type="febio"></plotfile>
		<logfile>
			<element_data data="sx">55</element_data>
		</logfile>
	</Output>
</febio_spec>
