<?xml version="1.0" encoding="ISO-8859-1"?>
<!--
Problem Description:
	1/8th symmetrical representation of an inflating balloon.  A pressure of
	0 units at time t=0 to -0.0045 units at t=1 is applied to the shell disk.
Main Features:
	Shells
	Pressure
Secondary Features:
	
Materials:
	Neo-Hookean
Degrees of Freedom: 301
Results:
	Steps Completed: 14
	Equilibrium Iterations: 143
	Right Hand Evaluations: 222
	Siffness Reformations: 21
	Other:
		The disk has a maximum z-displacement of 0.447 at time t=1.
Comments:
	In order to have consistent results with multiple threads, the material parameter
	E was changed from 1 to 10 and the pressure was increased to the limit before
	the results became inconsistent.
-->
<febio_spec version="2.0">
	<Module type="solid"/>
	<Control>
		<title>1/8th Balloon Inflation</title>
		<time_steps>10</time_steps>
		<step_size>0.1</step_size>
		<max_refs>15</max_refs>
		<max_ups>10</max_ups>
		<dtol>0.001</dtol>
		<etol>0.01</etol>
		<rtol>0</rtol>
		<lstol>0.9</lstol>
		<pressure_stiffness>0</pressure_stiffness>
		<time_stepper>
			<dtmin>0.01</dtmin>
			<dtmax>0.1</dtmax>
			<max_retries>5</max_retries>
			<opt_iter>10</opt_iter>
		</time_stepper>
		<analysis type="static"/>
	</Control>
	<Globals>
		<Constants>
			<T>0</T>
			<R>0</R>
			<Fc>0</Fc>
		</Constants>
	</Globals>
	<Material>
		<material id="1" name="Material 3" type="neo-Hookean">
			<density>1</density>
			<E>10</E>
			<v>0.45</v>
		</material>
	</Material>
	<Geometry>
		<Nodes>
			<node id="1"> 0.0000000e+000, 0.0000000e+000, 0.0000000e+000</node>
			<node id="2"> 0.0000000e+000, 1.1466437e-001, 0.0000000e+000</node>
			<node id="3"> 0.0000000e+000, 2.3591883e-001, 0.0000000e+000</node>
			<node id="4"> 0.0000000e+000, 3.4785349e-001, 0.0000000e+000</node>
			<node id="5"> 1.1466437e-001, 0.0000000e+000, 0.0000000e+000</node>
			<node id="6"> 1.1667262e-001, 1.1667262e-001, 0.0000000e+000</node>
			<node id="7"> 1.1796353e-001, 2.3592706e-001, 0.0000000e+000</node>
			<node id="8"> 1.1512514e-001, 3.4537541e-001, 0.0000000e+000</node>
			<node id="9"> 2.3591883e-001, 0.0000000e+000, 0.0000000e+000</node>
			<node id="10"> 2.3592706e-001, 1.1796353e-001, 0.0000000e+000</node>
			<node id="11"> 2.3334524e-001, 2.3334524e-001, 0.0000000e+000</node>
			<node id="12"> 2.2431403e-001, 3.3647104e-001, 0.0000000e+000</node>
			<node id="13"> 3.4785349e-001, 0.0000000e+000, 0.0000000e+000</node>
			<node id="14"> 3.4537541e-001, 1.1512514e-001, 0.0000000e+000</node>
			<node id="15"> 3.3647104e-001, 2.2431403e-001, 0.0000000e+000</node>
			<node id="16"> 3.1819805e-001, 3.1819805e-001, 0.0000000e+000</node>
			<node id="17"> 4.5654457e-001, 0.0000000e+000, 0.0000000e+000</node>
			<node id="18"> 4.4592672e-001, 1.4864224e-001, 0.0000000e+000</node>
			<node id="19"> 4.1906758e-001, 2.7937839e-001, 0.0000000e+000</node>
			<node id="20"> 3.8301617e-001, 3.8301617e-001, 0.0000000e+000</node>
<!-- ... 38 like lines cut -->
		</Nodes>
		<Elements type="quad4" mat="1" elset="Part42">
			<elem id="1">     1,     5,     6,     2</elem>
			<elem id="2">     5,     9,    10,     6</elem>
			<elem id="3">     9,    13,    14,    10</elem>
			<elem id="4">     2,     6,     7,     3</elem>
			<elem id="5">     6,    10,    11,     7</elem>
			<elem id="6">    10,    14,    15,    11</elem>
			<elem id="7">     3,     7,     8,     4</elem>
			<elem id="8">     7,    11,    12,     8</elem>
			<elem id="9">    11,    15,    16,    12</elem>
			<elem id="10">    13,    17,    18,    14</elem>
			<elem id="11">    14,    18,    19,    15</elem>
			<elem id="12">    15,    19,    20,    16</elem>
			<elem id="13">    16,    20,    21,    12</elem>
			<elem id="14">    12,    21,    22,     8</elem>
			<elem id="15">     8,    22,    23,     4</elem>
			<elem id="16">    17,    24,    25,    18</elem>
			<elem id="17">    18,    25,    26,    19</elem>
			<elem id="18">    19,    26,    27,    20</elem>
			<elem id="19">    20,    27,    28,    21</elem>
			<elem id="20">    21,    28,    29,    22</elem>
<!-- ... 25 like lines cut -->
		</Elements>
		<Surface name="surface01">
			<quad4 id="1">     1,     5,     6,     2</quad4>
			<quad4 id="2">     5,     9,    10,     6</quad4>
			<quad4 id="3">     9,    13,    14,    10</quad4>
			<quad4 id="4">     2,     6,     7,     3</quad4>
			<quad4 id="5">     6,    10,    11,     7</quad4>
			<quad4 id="6">    10,    14,    15,    11</quad4>
			<quad4 id="7">     3,     7,     8,     4</quad4>
			<quad4 id="8">     7,    11,    12,     8</quad4>
			<quad4 id="9">    11,    15,    16,    12</quad4>
			<quad4 id="10">    13,    17,    18,    14</quad4>
			<quad4 id="11">    14,    18,    19,    15</quad4>
			<quad4 id="12">    15,    19,    20,    16</quad4>
			<quad4 id="13">    16,    20,    21,    12</quad4>
			<quad4 id="14">    12,    21,    22,     8</quad4>
			<quad4 id="15">     8,    22,    23,     4</quad4>
			<quad4 id="16">    17,    24,    25,    18</quad4>
			<quad4 id="17">    18,    25,    26,    19</quad4>
			<quad4 id="18">    19,    26,    27,    20</quad4>
			<quad4 id="19">    20,    27,    28,    21</quad4>
			<quad4 id="20">    21,    28,    29,    22</quad4>
<!-- ... 25 like lines cut -->
		</Surface>
		<ElementData>
			<element id="1">
				<thickness>0.01,0.01,0.01,0.01</thickness>
			</element>
			<element id="2">
				<thickness>0.01,0.01,0.01,0.01</thickness>
			</element>
			<element id="3">
				<thickness>0.01,0.01,0.01,0.01</thickness>
			</element>
			<element id="4">
				<thickness>0.01,0.01,0.01,0.01</thickness>
			</element>
			<element id="5">
				<thickness>0.01,0.01,0.01,0.01</thickness>
			</element>
			<element id="6">
				<thickness>0.01,0.01,0.01,0.01</thickness>
			</element>
			<element id="7">
				<thickness>0.01,0.01,0.01,0.01</thickness>
			</element>
			<element id="8">
				<thickness>0.01,0.01,0.01,0.01</thickness>
			</element>
			<element id="9">
				<thickness>0.01,0.01,0.01,0.01</thickness>
			</element>
			<element id="10">
				<thickness>0.01,0.01,0.01,0.01</thickness>
			</element>
			<element id="11">
				<thickness>0.01,0.01,0.01,0.01</thickness>
			</element>
			<element id="12">
				<thickness>0.01,0.01,0.01,0.01</thickness>
			</element>
			<element id="13">
				<thickness>0.01,0.01,0.01,0.01</thickness>
			</element>
			<element id="14">
				<thickness>0.01,0.01,0.01,0.01</thickness>
			</element>
			<element id="15">
				<thickness>0.01,0.01,0.01,0.01</thickness>
			</element>
			<element id="16">
				<thickness>0.01,0.01,0.01,0.01</thickness>
			</element>
			<element id="17">
				<thickness>0.01,0.01,0.01,0.01</thickness>
			</element>
			<element id="18">
				<thickness>0.01,0.01,0.01,0.01</thickness>
			</element>
			<element id="19">
				<thickness>0.01,0.01,0.01,0.01</thickness>
			</element>
			<element id="20">
				<thickness>0.01,0.01,0.01,0.01</thickness>
			</element>
			<element id="21">
				<thickness>0.01,0.01,0.01,0.01</thickness>
			</element>
			<element id="22">
				<thickness>0.01,0.01,0.01,0.01</thickness>
			</element>
			<element id="23">
				<thickness>0.01,0.01,0.01,0.01</thickness>
			</element>
			<element id="24">
				<thickness>0.01,0.01,0.01,0.01</thickness>
			</element>
			<element id="25">
				<thickness>0.01,0.01,0.01,0.01</thickness>
			</element>
			<element id="26">
				<thickness>0.01,0.01,0.01,0.01</thickness>
			</element>
			<element id="27">
				<thickness>0.01,0.01,0.01,0.01</thickness>
			</element>
			<element id="28">
				<thickness>0.01,0.01,0.01,0.01</thickness>
			</element>
			<element id="29">
				<thickness>0.01,0.01,0.01,0.01</thickness>
			</element>
			<element id="30">
				<thickness>0.01,0.01,0.01,0.01</thickness>
			</element>
			<element id="31">
				<thickness>0.01,0.01,0.01,0.01</thickness>
			</element>
			<element id="32">
				<thickness>0.01,0.01,0.01,0.01</thickness>
			</element>
			<element id="33">
				<thickness>0.01,0.01,0.01,0.01</thickness>
			</element>
			<element id="34">
				<thickness>0.01,0.01,0.01,0.01</thickness>
			</element>
			<element id="35">
				<thickness>0.01,0.01,0.01,0.01</thickness>
			</element>
			<element id="36">
				<thickness>0.01,0.01,0.01,0.01</thickness>
			</element>
			<element id="37">
				<thickness>0.01,0.01,0.01,0.01</thickness>
			</element>
			<element id="38">
				<thickness>0.01,0.01,0.01,0.01</thickness>
			</element>
			<element id="39">
				<thickness>0.01,0.01,0.01,0.01</thickness>
			</element>
			<element id="40">
				<thickness>0.01,0.01,0.01,0.01</thickness>
			</element>
			<element id="41">
				<thickness>0.01,0.01,0.01,0.01</thickness>
			</element>
			<element id="42">
				<thickness>0.01,0.01,0.01,0.01</thickness>
			</element>
			<element id="43">
				<thickness>0.01,0.01,0.01,0.01</thickness>
			</element>
			<element id="44">
				<thickness>0.01,0.01,0.01,0.01</thickness>
			</element>
			<element id="45">
				<thickness>0.01,0.01,0.01,0.01</thickness>
			</element>
		</ElementData>
	</Geometry>
	<Boundary>
		<fix bc="v">
			<node id="1"/>
			<node id="5"/>
			<node id="9"/>
			<node id="13"/>
			<node id="17"/>
			<node id="24"/>
			<node id="31"/>
			<node id="38"/>
			<node id="45"/>
			<node id="52"/>
		</fix>
		<fix bc="u">
			<node id="1"/>
			<node id="2"/>
			<node id="3"/>
			<node id="4"/>
			<node id="23"/>
			<node id="30"/>
			<node id="37"/>
			<node id="44"/>
			<node id="51"/>
			<node id="58"/>
		</fix>
		<fix bc="y">
			<node id="1"/>
			<node id="5"/>
			<node id="9"/>
			<node id="13"/>
			<node id="17"/>
			<node id="24"/>
			<node id="31"/>
			<node id="38"/>
			<node id="45"/>
			<node id="52"/>
		</fix>
		<fix bc="x">
			<node id="1"/>
			<node id="2"/>
			<node id="3"/>
			<node id="4"/>
			<node id="23"/>
			<node id="30"/>
			<node id="37"/>
			<node id="44"/>
			<node id="51"/>
			<node id="58"/>
		</fix>
		<fix bc="z">
			<node id="52"/>
			<node id="53"/>
			<node id="54"/>
			<node id="55"/>
			<node id="56"/>
			<node id="57"/>
			<node id="58"/>
		</fix>
	</Boundary>
	<Loads>
		<surface_load type="pressure">
			<pressure lc="1">1.0</pressure>
			<linear>0</linear>
			<surface set="surface01"/>
		</surface_load>
	</Loads>
	<LoadData>
		<loadcurve id="1" type="linear">
			<loadpoint>0,0</loadpoint>
			<loadpoint>1,-0.008</loadpoint>
		</loadcurve>
	</LoadData>
	<Output>
		<plotfile type="febio"></plotfile>
		<logfile>
			<element_data data="sx">5</element_data>
		</logfile>
	</Output>
</febio_spec>
