<?xml version="1.0" encoding="ISO-8859-1"?>
<!--
Problem Description:
	Shell verification problem.  Compare to analytical solution by Batoz.
	A 4x8 quad8 element shell sheet is twisted by constraining one end and applying
	equal but opposite forces of 1 N to the corners of the non-constrained end.
Main Features:
	Shells
	Nodal Force
Secondary Features:
	quad8
Materials:
	Isotropic Elastic
Degrees of Freedom: 672
Results
	Steps Completed: 10
	Equilibrium Iterations: 20
	Right Hand Evaluations: 30
	Siffness Reformations: 20
	Other:
		The sheet has a maximum displacement of 5.33e-3 units at time t=1.
Comments:
-->
<febio_spec version="2.0">
	<Module type="solid"/>
	<Control>
		<time_steps>10</time_steps>
		<step_size>0.1</step_size>
		<max_refs>15</max_refs>
		<max_ups>0</max_ups>
		<dtol>0.001</dtol>
		<etol>0.01</etol>
		<rtol>0</rtol>
		<lstol>0.9</lstol>
		<time_stepper>
			<dtmin>0.01</dtmin>
			<dtmax>0.1</dtmax>
			<max_retries>5</max_retries>
			<opt_iter>10</opt_iter>
		</time_stepper>
		<analysis type="static"/>
	</Control>
	<Globals>
		<Constants>
			<T>0</T>
			<R>0</R>
			<Fc>0</Fc>
		</Constants>
	</Globals>
	<Material>
		<material id="1" name="St-Venant Kirchhoff" type="isotropic elastic">
			<density>1</density>
			<E>1e+07</E>
			<v>0.25</v>
		</material>
	</Material>
	<Geometry>
		<Nodes>
			<node id="1"> -1.0000000e+00, -5.0000000e-01,  0.0000000e+00</node>
			<node id="2"> -1.0000000e+00, -3.7500000e-01,  0.0000000e+00</node>
			<node id="3"> -1.0000000e+00, -2.5000000e-01,  0.0000000e+00</node>
			<node id="4"> -1.0000000e+00, -1.2500000e-01,  0.0000000e+00</node>
			<node id="5"> -1.0000000e+00,  0.0000000e+00,  0.0000000e+00</node>
			<node id="6"> -1.0000000e+00,  1.2500000e-01,  0.0000000e+00</node>
			<node id="7"> -1.0000000e+00,  2.5000000e-01,  0.0000000e+00</node>
			<node id="8"> -1.0000000e+00,  3.7500000e-01,  0.0000000e+00</node>
			<node id="9"> -1.0000000e+00,  5.0000000e-01,  0.0000000e+00</node>
			<node id="10"> -8.7500000e-01, -5.0000000e-01,  0.0000000e+00</node>
			<node id="11"> -8.7500000e-01, -2.5000000e-01,  0.0000000e+00</node>
			<node id="12"> -8.7500000e-01,  0.0000000e+00,  0.0000000e+00</node>
			<node id="13"> -8.7500000e-01,  2.5000000e-01,  0.0000000e+00</node>
			<node id="14"> -8.7500000e-01,  5.0000000e-01,  0.0000000e+00</node>
			<node id="15"> -7.5000000e-01, -5.0000000e-01,  0.0000000e+00</node>
			<node id="16"> -7.5000000e-01, -3.7500000e-01,  0.0000000e+00</node>
			<node id="17"> -7.5000000e-01, -2.5000000e-01,  0.0000000e+00</node>
			<node id="18"> -7.5000000e-01, -1.2500000e-01,  0.0000000e+00</node>
			<node id="19"> -7.5000000e-01,  0.0000000e+00,  0.0000000e+00</node>
			<node id="20"> -7.5000000e-01,  1.2500000e-01,  0.0000000e+00</node>
<!-- ... 101 like lines cut -->
		</Nodes>
		<Elements type="quad8" mat="1" elset="Part2">
			<elem id="1">     1,    15,    17,     3,    10,    16,    11,     2</elem>
			<elem id="2">     3,    17,    19,     5,    11,    18,    12,     4</elem>
			<elem id="3">     5,    19,    21,     7,    12,    20,    13,     6</elem>
			<elem id="4">     7,    21,    23,     9,    13,    22,    14,     8</elem>
			<elem id="5">    15,    29,    31,    17,    24,    30,    25,    16</elem>
			<elem id="6">    17,    31,    33,    19,    25,    32,    26,    18</elem>
			<elem id="7">    19,    33,    35,    21,    26,    34,    27,    20</elem>
			<elem id="8">    21,    35,    37,    23,    27,    36,    28,    22</elem>
			<elem id="9">    29,    43,    45,    31,    38,    44,    39,    30</elem>
			<elem id="10">    31,    45,    47,    33,    39,    46,    40,    32</elem>
			<elem id="11">    33,    47,    49,    35,    40,    48,    41,    34</elem>
			<elem id="12">    35,    49,    51,    37,    41,    50,    42,    36</elem>
			<elem id="13">    43,    57,    59,    45,    52,    58,    53,    44</elem>
			<elem id="14">    45,    59,    61,    47,    53,    60,    54,    46</elem>
			<elem id="15">    47,    61,    63,    49,    54,    62,    55,    48</elem>
			<elem id="16">    49,    63,    65,    51,    55,    64,    56,    50</elem>
			<elem id="17">    57,    71,    73,    59,    66,    72,    67,    58</elem>
			<elem id="18">    59,    73,    75,    61,    67,    74,    68,    60</elem>
			<elem id="19">    61,    75,    77,    63,    68,    76,    69,    62</elem>
			<elem id="20">    63,    77,    79,    65,    69,    78,    70,    64</elem>
<!-- ... 12 like lines cut -->
		</Elements>
		<ElementData>
			<element id="1">
				<thickness>0.05,0.05,0.05,0.05,0.05,0.05,0.05,0.05</thickness>
			</element>
			<element id="2">
				<thickness>0.05,0.05,0.05,0.05,0.05,0.05,0.05,0.05</thickness>
			</element>
			<element id="3">
				<thickness>0.05,0.05,0.05,0.05,0.05,0.05,0.05,0.05</thickness>
			</element>
			<element id="4">
				<thickness>0.05,0.05,0.05,0.05,0.05,0.05,0.05,0.05</thickness>
			</element>
			<element id="5">
				<thickness>0.05,0.05,0.05,0.05,0.05,0.05,0.05,0.05</thickness>
			</element>
			<element id="6">
				<thickness>0.05,0.05,0.05,0.05,0.05,0.05,0.05,0.05</thickness>
			</element>
			<element id="7">
				<thickness>0.05,0.05,0.05,0.05,0.05,0.05,0.05,0.05</thickness>
			</element>
			<element id="8">
				<thickness>0.05,0.05,0.05,0.05,0.05,0.05,0.05,0.05</thickness>
			</element>
			<element id="9">
				<thickness>0.05,0.05,0.05,0.05,0.05,0.05,0.05,0.05</thickness>
			</element>
			<element id="10">
				<thickness>0.05,0.05,0.05,0.05,0.05,0.05,0.05,0.05</thickness>
			</element>
			<element id="11">
				<thickness>0.05,0.05,0.05,0.05,0.05,0.05,0.05,0.05</thickness>
			</element>
			<element id="12">
				<thickness>0.05,0.05,0.05,0.05,0.05,0.05,0.05,0.05</thickness>
			</element>
			<element id="13">
				<thickness>0.05,0.05,0.05,0.05,0.05,0.05,0.05,0.05</thickness>
			</element>
			<element id="14">
				<thickness>0.05,0.05,0.05,0.05,0.05,0.05,0.05,0.05</thickness>
			</element>
			<element id="15">
				<thickness>0.05,0.05,0.05,0.05,0.05,0.05,0.05,0.05</thickness>
			</element>
			<element id="16">
				<thickness>0.05,0.05,0.05,0.05,0.05,0.05,0.05,0.05</thickness>
			</element>
			<element id="17">
				<thickness>0.05,0.05,0.05,0.05,0.05,0.05,0.05,0.05</thickness>
			</element>
			<element id="18">
				<thickness>0.05,0.05,0.05,0.05,0.05,0.05,0.05,0.05</thickness>
			</element>
			<element id="19">
				<thickness>0.05,0.05,0.05,0.05,0.05,0.05,0.05,0.05</thickness>
			</element>
			<element id="20">
				<thickness>0.05,0.05,0.05,0.05,0.05,0.05,0.05,0.05</thickness>
			</element>
			<element id="21">
				<thickness>0.05,0.05,0.05,0.05,0.05,0.05,0.05,0.05</thickness>
			</element>
			<element id="22">
				<thickness>0.05,0.05,0.05,0.05,0.05,0.05,0.05,0.05</thickness>
			</element>
			<element id="23">
				<thickness>0.05,0.05,0.05,0.05,0.05,0.05,0.05,0.05</thickness>
			</element>
			<element id="24">
				<thickness>0.05,0.05,0.05,0.05,0.05,0.05,0.05,0.05</thickness>
			</element>
			<element id="25">
				<thickness>0.05,0.05,0.05,0.05,0.05,0.05,0.05,0.05</thickness>
			</element>
			<element id="26">
				<thickness>0.05,0.05,0.05,0.05,0.05,0.05,0.05,0.05</thickness>
			</element>
			<element id="27">
				<thickness>0.05,0.05,0.05,0.05,0.05,0.05,0.05,0.05</thickness>
			</element>
			<element id="28">
				<thickness>0.05,0.05,0.05,0.05,0.05,0.05,0.05,0.05</thickness>
			</element>
			<element id="29">
				<thickness>0.05,0.05,0.05,0.05,0.05,0.05,0.05,0.05</thickness>
			</element>
			<element id="30">
				<thickness>0.05,0.05,0.05,0.05,0.05,0.05,0.05,0.05</thickness>
			</element>
			<element id="31">
				<thickness>0.05,0.05,0.05,0.05,0.05,0.05,0.05,0.05</thickness>
			</element>
			<element id="32">
				<thickness>0.05,0.05,0.05,0.05,0.05,0.05,0.05,0.05</thickness>
			</element>
		</ElementData>
	</Geometry>
	<Boundary>
		<fix bc="xyz">
			<node id="1"/>
			<node id="2"/>
			<node id="3"/>
			<node id="4"/>
			<node id="5"/>
			<node id="6"/>
			<node id="7"/>
			<node id="8"/>
			<node id="9"/>
		</fix>
		<fix bc="uvw">
			<node id="1"/>
			<node id="2"/>
			<node id="3"/>
			<node id="4"/>
			<node id="5"/>
			<node id="6"/>
			<node id="7"/>
			<node id="8"/>
			<node id="9"/>
		</fix>
	</Boundary>
	<Loads>
		<nodal_load bc="z" lc="1">
			<node id="121">1</node>
		</nodal_load>
		<nodal_load bc="z" lc="2">
			<node id="113">-1</node>
		</nodal_load>
	</Loads>
	<LoadData>
		<loadcurve id="1" type="smooth">
			<point>0,0</point>
			<point>1,1</point>
		</loadcurve>
		<loadcurve id="2" type="smooth">
			<point>0,0</point>
			<point>1,1</point>
		</loadcurve>
	</LoadData>
	<Output>
		<plotfile type="febio">
			<var type="displacement"/>
			<var type="reaction forces"/>
			<var type="stress"/>
			<var type="shell thickness"/>
			<var type="shell director"/>
			<var type="shell strain"/>
		</plotfile>
		<logfile>
			<element_data data="sy">31</element_data>
			<node_data file="sh17.dat" data="uz">121,113</node_data>
		</logfile>
	</Output>
</febio_spec>
