<?xml version="1.0" encoding="ISO-8859-1"?>
<!--
Problem Description:
	Shell verification problem.  Compare to analytical solution by Batoz.
	A 4x8 quad8 element shell sheet is twisted by constraining one end and applying
	equal but opposite forces of 1 N to the corners of the non-constrained end.
Main Features:
	Shells
	Nodal Force
Secondary Features:
	tri6
Materials:
	Isotropic Elastic
Degrees of Freedom: 864
Results
	Steps Completed: 10
	Equilibrium Iterations: 20
	Right Hand Evaluations: 30
	Siffness Reformations: 20
	Other:
		The sheet has a maximum displacement of 0.005299 units at time t=1.
Comments:
-->
<febio_spec version="2.0">
	<Module type="solid"/>
	<Control>
		<time_steps>10</time_steps>
		<step_size>0.1</step_size>
		<max_refs>15</max_refs>
		<max_ups>0</max_ups>
		<dtol>0.001</dtol>
		<etol>0.01</etol>
		<rtol>0</rtol>
		<lstol>0.9</lstol>
		<time_stepper>
			<dtmin>0.01</dtmin>
			<dtmax>0.1</dtmax>
			<max_retries>5</max_retries>
			<opt_iter>10</opt_iter>
		</time_stepper>
		<analysis type="static"/>
	</Control>
	<Globals>
		<Constants>
			<T>0</T>
			<R>0</R>
			<Fc>0</Fc>
		</Constants>
	</Globals>
	<Material>
		<material id="1" name="St-Venant Kirchhoff" type="isotropic elastic">
			<density>1</density>
			<E>1e+07</E>
			<v>0.25</v>
		</material>
	</Material>
	<Geometry>
		<Nodes>
			<node id="1"> -1.0000000e+00, -5.0000000e-01,  0.0000000e+00</node>
			<node id="2"> -1.0000000e+00, -2.5000000e-01,  0.0000000e+00</node>
			<node id="3"> -1.0000000e+00,  0.0000000e+00,  0.0000000e+00</node>
			<node id="4"> -1.0000000e+00,  2.5000000e-01,  0.0000000e+00</node>
			<node id="5"> -1.0000000e+00,  5.0000000e-01,  0.0000000e+00</node>
			<node id="6"> -7.5000000e-01, -5.0000000e-01,  0.0000000e+00</node>
			<node id="7"> -7.5000000e-01, -2.5000000e-01,  0.0000000e+00</node>
			<node id="8"> -7.5000000e-01,  0.0000000e+00,  0.0000000e+00</node>
			<node id="9"> -7.5000000e-01,  2.5000000e-01,  0.0000000e+00</node>
			<node id="10"> -7.5000000e-01,  5.0000000e-01,  0.0000000e+00</node>
			<node id="11"> -5.0000000e-01, -5.0000000e-01,  0.0000000e+00</node>
			<node id="12"> -5.0000000e-01, -2.5000000e-01,  0.0000000e+00</node>
			<node id="13"> -5.0000000e-01,  0.0000000e+00,  0.0000000e+00</node>
			<node id="14"> -5.0000000e-01,  2.5000000e-01,  0.0000000e+00</node>
			<node id="15"> -5.0000000e-01,  5.0000000e-01,  0.0000000e+00</node>
			<node id="16"> -2.5000000e-01, -5.0000000e-01,  0.0000000e+00</node>
			<node id="17"> -2.5000000e-01, -2.5000000e-01,  0.0000000e+00</node>
			<node id="18"> -2.5000000e-01,  0.0000000e+00,  0.0000000e+00</node>
			<node id="19"> -2.5000000e-01,  2.5000000e-01,  0.0000000e+00</node>
			<node id="20"> -2.5000000e-01,  5.0000000e-01,  0.0000000e+00</node>
<!-- ... 133 like lines cut -->
		</Nodes>
		<Elements type="tri6" mat="1" elset="Part2">
			<elem id="1">     1,     6,     7,    47,    59,    46</elem>
			<elem id="2">     1,     7,     2,    46,    49,    48</elem>
			<elem id="3">     2,     7,     8,    49,    62,    50</elem>
			<elem id="4">     2,     8,     3,    50,    52,    51</elem>
			<elem id="5">     3,     8,     9,    52,    65,    53</elem>
			<elem id="6">     3,     9,     4,    53,    55,    54</elem>
			<elem id="7">     4,     9,    10,    55,    68,    56</elem>
			<elem id="8">     4,    10,     5,    56,    58,    57</elem>
			<elem id="9">     6,    11,    12,    60,    72,    61</elem>
			<elem id="10">     6,    12,     7,    61,    63,    59</elem>
			<elem id="11">     7,    12,    13,    63,    75,    64</elem>
			<elem id="12">     7,    13,     8,    64,    66,    62</elem>
			<elem id="13">     8,    13,    14,    66,    78,    67</elem>
			<elem id="14">     8,    14,     9,    67,    69,    65</elem>
			<elem id="15">     9,    14,    15,    69,    81,    70</elem>
			<elem id="16">     9,    15,    10,    70,    71,    68</elem>
			<elem id="17">    11,    16,    17,    74,    85,    73</elem>
			<elem id="18">    11,    17,    12,    73,    76,    72</elem>
			<elem id="19">    12,    17,    18,    76,    88,    77</elem>
			<elem id="20">    12,    18,    13,    77,    79,    75</elem>
<!-- ... 44 like lines cut -->
		</Elements>
		<ElementData>
			<element id="1">
				<thickness>0.05,0.05,0.05,0.05,0.05,0.05</thickness>
			</element>
			<element id="2">
				<thickness>0.05,0.05,0.05,0.05,0.05,0.05</thickness>
			</element>
			<element id="3">
				<thickness>0.05,0.05,0.05,0.05,0.05,0.05</thickness>
			</element>
			<element id="4">
				<thickness>0.05,0.05,0.05,0.05,0.05,0.05</thickness>
			</element>
			<element id="5">
				<thickness>0.05,0.05,0.05,0.05,0.05,0.05</thickness>
			</element>
			<element id="6">
				<thickness>0.05,0.05,0.05,0.05,0.05,0.05</thickness>
			</element>
			<element id="7">
				<thickness>0.05,0.05,0.05,0.05,0.05,0.05</thickness>
			</element>
			<element id="8">
				<thickness>0.05,0.05,0.05,0.05,0.05,0.05</thickness>
			</element>
			<element id="9">
				<thickness>0.05,0.05,0.05,0.05,0.05,0.05</thickness>
			</element>
			<element id="10">
				<thickness>0.05,0.05,0.05,0.05,0.05,0.05</thickness>
			</element>
			<element id="11">
				<thickness>0.05,0.05,0.05,0.05,0.05,0.05</thickness>
			</element>
			<element id="12">
				<thickness>0.05,0.05,0.05,0.05,0.05,0.05</thickness>
			</element>
			<element id="13">
				<thickness>0.05,0.05,0.05,0.05,0.05,0.05</thickness>
			</element>
			<element id="14">
				<thickness>0.05,0.05,0.05,0.05,0.05,0.05</thickness>
			</element>
			<element id="15">
				<thickness>0.05,0.05,0.05,0.05,0.05,0.05</thickness>
			</element>
			<element id="16">
				<thickness>0.05,0.05,0.05,0.05,0.05,0.05</thickness>
			</element>
			<element id="17">
				<thickness>0.05,0.05,0.05,0.05,0.05,0.05</thickness>
			</element>
			<element id="18">
				<thickness>0.05,0.05,0.05,0.05,0.05,0.05</thickness>
			</element>
			<element id="19">
				<thickness>0.05,0.05,0.05,0.05,0.05,0.05</thickness>
			</element>
			<element id="20">
				<thickness>0.05,0.05,0.05,0.05,0.05,0.05</thickness>
			</element>
			<element id="21">
				<thickness>0.05,0.05,0.05,0.05,0.05,0.05</thickness>
			</element>
			<element id="22">
				<thickness>0.05,0.05,0.05,0.05,0.05,0.05</thickness>
			</element>
			<element id="23">
				<thickness>0.05,0.05,0.05,0.05,0.05,0.05</thickness>
			</element>
			<element id="24">
				<thickness>0.05,0.05,0.05,0.05,0.05,0.05</thickness>
			</element>
			<element id="25">
				<thickness>0.05,0.05,0.05,0.05,0.05,0.05</thickness>
			</element>
			<element id="26">
				<thickness>0.05,0.05,0.05,0.05,0.05,0.05</thickness>
			</element>
			<element id="27">
				<thickness>0.05,0.05,0.05,0.05,0.05,0.05</thickness>
			</element>
			<element id="28">
				<thickness>0.05,0.05,0.05,0.05,0.05,0.05</thickness>
			</element>
			<element id="29">
				<thickness>0.05,0.05,0.05,0.05,0.05,0.05</thickness>
			</element>
			<element id="30">
				<thickness>0.05,0.05,0.05,0.05,0.05,0.05</thickness>
			</element>
			<element id="31">
				<thickness>0.05,0.05,0.05,0.05,0.05,0.05</thickness>
			</element>
			<element id="32">
				<thickness>0.05,0.05,0.05,0.05,0.05,0.05</thickness>
			</element>
			<element id="33">
				<thickness>0.05,0.05,0.05,0.05,0.05,0.05</thickness>
			</element>
			<element id="34">
				<thickness>0.05,0.05,0.05,0.05,0.05,0.05</thickness>
			</element>
			<element id="35">
				<thickness>0.05,0.05,0.05,0.05,0.05,0.05</thickness>
			</element>
			<element id="36">
				<thickness>0.05,0.05,0.05,0.05,0.05,0.05</thickness>
			</element>
			<element id="37">
				<thickness>0.05,0.05,0.05,0.05,0.05,0.05</thickness>
			</element>
			<element id="38">
				<thickness>0.05,0.05,0.05,0.05,0.05,0.05</thickness>
			</element>
			<element id="39">
				<thickness>0.05,0.05,0.05,0.05,0.05,0.05</thickness>
			</element>
			<element id="40">
				<thickness>0.05,0.05,0.05,0.05,0.05,0.05</thickness>
			</element>
			<element id="41">
				<thickness>0.05,0.05,0.05,0.05,0.05,0.05</thickness>
			</element>
			<element id="42">
				<thickness>0.05,0.05,0.05,0.05,0.05,0.05</thickness>
			</element>
			<element id="43">
				<thickness>0.05,0.05,0.05,0.05,0.05,0.05</thickness>
			</element>
			<element id="44">
				<thickness>0.05,0.05,0.05,0.05,0.05,0.05</thickness>
			</element>
			<element id="45">
				<thickness>0.05,0.05,0.05,0.05,0.05,0.05</thickness>
			</element>
			<element id="46">
				<thickness>0.05,0.05,0.05,0.05,0.05,0.05</thickness>
			</element>
			<element id="47">
				<thickness>0.05,0.05,0.05,0.05,0.05,0.05</thickness>
			</element>
			<element id="48">
				<thickness>0.05,0.05,0.05,0.05,0.05,0.05</thickness>
			</element>
			<element id="49">
				<thickness>0.05,0.05,0.05,0.05,0.05,0.05</thickness>
			</element>
			<element id="50">
				<thickness>0.05,0.05,0.05,0.05,0.05,0.05</thickness>
			</element>
			<element id="51">
				<thickness>0.05,0.05,0.05,0.05,0.05,0.05</thickness>
			</element>
			<element id="52">
				<thickness>0.05,0.05,0.05,0.05,0.05,0.05</thickness>
			</element>
			<element id="53">
				<thickness>0.05,0.05,0.05,0.05,0.05,0.05</thickness>
			</element>
			<element id="54">
				<thickness>0.05,0.05,0.05,0.05,0.05,0.05</thickness>
			</element>
			<element id="55">
				<thickness>0.05,0.05,0.05,0.05,0.05,0.05</thickness>
			</element>
			<element id="56">
				<thickness>0.05,0.05,0.05,0.05,0.05,0.05</thickness>
			</element>
			<element id="57">
				<thickness>0.05,0.05,0.05,0.05,0.05,0.05</thickness>
			</element>
			<element id="58">
				<thickness>0.05,0.05,0.05,0.05,0.05,0.05</thickness>
			</element>
			<element id="59">
				<thickness>0.05,0.05,0.05,0.05,0.05,0.05</thickness>
			</element>
			<element id="60">
				<thickness>0.05,0.05,0.05,0.05,0.05,0.05</thickness>
			</element>
			<element id="61">
				<thickness>0.05,0.05,0.05,0.05,0.05,0.05</thickness>
			</element>
			<element id="62">
				<thickness>0.05,0.05,0.05,0.05,0.05,0.05</thickness>
			</element>
			<element id="63">
				<thickness>0.05,0.05,0.05,0.05,0.05,0.05</thickness>
			</element>
			<element id="64">
				<thickness>0.05,0.05,0.05,0.05,0.05,0.05</thickness>
			</element>
		</ElementData>
	</Geometry>
	<Boundary>
		<fix bc="xyz">
			<node id="1"/>
			<node id="2"/>
			<node id="3"/>
			<node id="4"/>
			<node id="5"/>
			<node id="48"/>
			<node id="51"/>
			<node id="54"/>
			<node id="57"/>
		</fix>
		<fix bc="uvw">
			<node id="1"/>
			<node id="2"/>
			<node id="3"/>
			<node id="4"/>
			<node id="5"/>
			<node id="48"/>
			<node id="51"/>
			<node id="54"/>
			<node id="57"/>
		</fix>
	</Boundary>
	<Loads>
		<nodal_load bc="z" lc="1">
			<node id="45">1</node>
		</nodal_load>
		<nodal_load bc="z" lc="2">
			<node id="41">-1</node>
		</nodal_load>
	</Loads>
	<LoadData>
		<loadcurve id="1" type="smooth">
			<point>0,0</point>
			<point>1,1</point>
		</loadcurve>
		<loadcurve id="2" type="smooth">
			<point>0,0</point>
			<point>1,1</point>
		</loadcurve>
	</LoadData>
	<Output>
		<plotfile type="febio">
			<var type="displacement"/>
			<var type="reaction forces"/>
			<var type="shell director"/>
			<var type="shell strain"/>
			<var type="shell thickness"/>
			<var type="stress"/>
		</plotfile>
		<logfile>
			<element_data data="sx">1</element_data>
		</logfile>
	</Output>
</febio_spec>
