<?xml version="1.0" encoding="ISO-8859-1"?>
<!--
Problem Description:
	A 20x4 element shell sheet is constrained in x,y,z on the left end and attached
	by rigid contact to a rigid body with a prescribed rotation of 1 radian in time t=1.
Main Features:
	Shells
	Rigid Contact
Secondary Features:
	
Materials:
	Neo-Hookean
Degrees of Freedom: 587
Results
	Steps Completed: 10
	Equilibrium Iterations: 36
	Right Hand Evaluations: 46
	Siffness Reformations: 36
	Other:
		The maximum effective stress is 2.27e-3 units at time t=1.
Comments:
	The shell-rigid interface connects nodal positions and
	directors, so that the shell edge rotates with the rigid
	body
-->
<febio_spec version="2.0">
	<Module type="solid"/>
	<Control>
		<title>Sheet Twist</title>
		<time_steps>10</time_steps>
		<step_size>0.1</step_size>
		<max_refs>15</max_refs>
		<max_ups>0</max_ups>
		<dtol>0.001</dtol>
		<etol>0.01</etol>
		<rtol>0</rtol>
		<lstol>0.9</lstol>
		<time_stepper>
			<dtmin>0.01</dtmin>
			<dtmax>0.1</dtmax>
			<max_retries>5</max_retries>
			<opt_iter>10</opt_iter>
		</time_stepper>
		<analysis type="static"/>
	</Control>
	<Globals>
		<Constants>
			<T>0</T>
			<R>0</R>
			<Fc>0</Fc>
		</Constants>
	</Globals>
	<Material>
		<material id="1" name="Material 1" type="neo-Hookean">
			<density>1</density>
			<E>1</E>
			<v>0</v>
		</material>
		<material id="2" name="Material 2" type="rigid body">
			<density>1</density>
		</material>
	</Material>
	<Geometry>
		<Nodes>
			<node id="1">-2.5000000e+000,-5.0000000e-001, 0.0000000e+000</node>
			<node id="2">-2.5000000e+000,-2.5000000e-001, 0.0000000e+000</node>
			<node id="3">-2.5000000e+000, 0.0000000e+000, 0.0000000e+000</node>
			<node id="4">-2.5000000e+000, 2.5000000e-001, 0.0000000e+000</node>
			<node id="5">-2.5000000e+000, 5.0000000e-001, 0.0000000e+000</node>
			<node id="6">-2.2500000e+000,-5.0000000e-001, 0.0000000e+000</node>
			<node id="7">-2.2500000e+000,-2.5000000e-001, 0.0000000e+000</node>
			<node id="8">-2.2500000e+000, 0.0000000e+000, 0.0000000e+000</node>
			<node id="9">-2.2500000e+000, 2.5000000e-001, 0.0000000e+000</node>
			<node id="10">-2.2500000e+000, 5.0000000e-001, 0.0000000e+000</node>
			<node id="11">-2.0000000e+000,-5.0000000e-001, 0.0000000e+000</node>
			<node id="12">-2.0000000e+000,-2.5000000e-001, 0.0000000e+000</node>
			<node id="13">-2.0000000e+000, 0.0000000e+000, 0.0000000e+000</node>
			<node id="14">-2.0000000e+000, 2.5000000e-001, 0.0000000e+000</node>
			<node id="15">-2.0000000e+000, 5.0000000e-001, 0.0000000e+000</node>
			<node id="16">-1.7500000e+000,-5.0000000e-001, 0.0000000e+000</node>
			<node id="17">-1.7500000e+000,-2.5000000e-001, 0.0000000e+000</node>
			<node id="18">-1.7500000e+000, 0.0000000e+000, 0.0000000e+000</node>
			<node id="19">-1.7500000e+000, 2.5000000e-001, 0.0000000e+000</node>
			<node id="20">-1.7500000e+000, 5.0000000e-001, 0.0000000e+000</node>
<!-- ... 93 like lines cut -->
		</Nodes>
		<Elements type="quad4" mat="1" elset="Part45">
			<elem id="1">     1,     6,     7,     2</elem>
			<elem id="2">     2,     7,     8,     3</elem>
			<elem id="3">     3,     8,     9,     4</elem>
			<elem id="4">     4,     9,    10,     5</elem>
			<elem id="5">     6,    11,    12,     7</elem>
			<elem id="6">     7,    12,    13,     8</elem>
			<elem id="7">     8,    13,    14,     9</elem>
			<elem id="8">     9,    14,    15,    10</elem>
			<elem id="9">    11,    16,    17,    12</elem>
			<elem id="10">    12,    17,    18,    13</elem>
			<elem id="11">    13,    18,    19,    14</elem>
			<elem id="12">    14,    19,    20,    15</elem>
			<elem id="13">    16,    21,    22,    17</elem>
			<elem id="14">    17,    22,    23,    18</elem>
			<elem id="15">    18,    23,    24,    19</elem>
			<elem id="16">    19,    24,    25,    20</elem>
			<elem id="17">    21,    26,    27,    22</elem>
			<elem id="18">    22,    27,    28,    23</elem>
			<elem id="19">    23,    28,    29,    24</elem>
			<elem id="20">    24,    29,    30,    25</elem>
<!-- ... 60 like lines cut -->
		</Elements>
		<Elements type="hex8" mat="2" elset="Part46">
			<elem id="81">   106,   110,   112,   108,   107,   111,   113,   109</elem>
		</Elements>
		<ElementData>
			<element id="1">
				<thickness>0.01,0.01,0.01,0.01</thickness>
			</element>
			<element id="2">
				<thickness>0.01,0.01,0.01,0.01</thickness>
			</element>
			<element id="3">
				<thickness>0.01,0.01,0.01,0.01</thickness>
			</element>
			<element id="4">
				<thickness>0.01,0.01,0.01,0.01</thickness>
			</element>
			<element id="5">
				<thickness>0.01,0.01,0.01,0.01</thickness>
			</element>
			<element id="6">
				<thickness>0.01,0.01,0.01,0.01</thickness>
			</element>
			<element id="7">
				<thickness>0.01,0.01,0.01,0.01</thickness>
			</element>
			<element id="8">
				<thickness>0.01,0.01,0.01,0.01</thickness>
			</element>
			<element id="9">
				<thickness>0.01,0.01,0.01,0.01</thickness>
			</element>
			<element id="10">
				<thickness>0.01,0.01,0.01,0.01</thickness>
			</element>
			<element id="11">
				<thickness>0.01,0.01,0.01,0.01</thickness>
			</element>
			<element id="12">
				<thickness>0.01,0.01,0.01,0.01</thickness>
			</element>
			<element id="13">
				<thickness>0.01,0.01,0.01,0.01</thickness>
			</element>
			<element id="14">
				<thickness>0.01,0.01,0.01,0.01</thickness>
			</element>
			<element id="15">
				<thickness>0.01,0.01,0.01,0.01</thickness>
			</element>
			<element id="16">
				<thickness>0.01,0.01,0.01,0.01</thickness>
			</element>
			<element id="17">
				<thickness>0.01,0.01,0.01,0.01</thickness>
			</element>
			<element id="18">
				<thickness>0.01,0.01,0.01,0.01</thickness>
			</element>
			<element id="19">
				<thickness>0.01,0.01,0.01,0.01</thickness>
			</element>
			<element id="20">
				<thickness>0.01,0.01,0.01,0.01</thickness>
			</element>
			<element id="21">
				<thickness>0.01,0.01,0.01,0.01</thickness>
			</element>
			<element id="22">
				<thickness>0.01,0.01,0.01,0.01</thickness>
			</element>
			<element id="23">
				<thickness>0.01,0.01,0.01,0.01</thickness>
			</element>
			<element id="24">
				<thickness>0.01,0.01,0.01,0.01</thickness>
			</element>
			<element id="25">
				<thickness>0.01,0.01,0.01,0.01</thickness>
			</element>
			<element id="26">
				<thickness>0.01,0.01,0.01,0.01</thickness>
			</element>
			<element id="27">
				<thickness>0.01,0.01,0.01,0.01</thickness>
			</element>
			<element id="28">
				<thickness>0.01,0.01,0.01,0.01</thickness>
			</element>
			<element id="29">
				<thickness>0.01,0.01,0.01,0.01</thickness>
			</element>
			<element id="30">
				<thickness>0.01,0.01,0.01,0.01</thickness>
			</element>
			<element id="31">
				<thickness>0.01,0.01,0.01,0.01</thickness>
			</element>
			<element id="32">
				<thickness>0.01,0.01,0.01,0.01</thickness>
			</element>
			<element id="33">
				<thickness>0.01,0.01,0.01,0.01</thickness>
			</element>
			<element id="34">
				<thickness>0.01,0.01,0.01,0.01</thickness>
			</element>
			<element id="35">
				<thickness>0.01,0.01,0.01,0.01</thickness>
			</element>
			<element id="36">
				<thickness>0.01,0.01,0.01,0.01</thickness>
			</element>
			<element id="37">
				<thickness>0.01,0.01,0.01,0.01</thickness>
			</element>
			<element id="38">
				<thickness>0.01,0.01,0.01,0.01</thickness>
			</element>
			<element id="39">
				<thickness>0.01,0.01,0.01,0.01</thickness>
			</element>
			<element id="40">
				<thickness>0.01,0.01,0.01,0.01</thickness>
			</element>
			<element id="41">
				<thickness>0.01,0.01,0.01,0.01</thickness>
			</element>
			<element id="42">
				<thickness>0.01,0.01,0.01,0.01</thickness>
			</element>
			<element id="43">
				<thickness>0.01,0.01,0.01,0.01</thickness>
			</element>
			<element id="44">
				<thickness>0.01,0.01,0.01,0.01</thickness>
			</element>
			<element id="45">
				<thickness>0.01,0.01,0.01,0.01</thickness>
			</element>
			<element id="46">
				<thickness>0.01,0.01,0.01,0.01</thickness>
			</element>
			<element id="47">
				<thickness>0.01,0.01,0.01,0.01</thickness>
			</element>
			<element id="48">
				<thickness>0.01,0.01,0.01,0.01</thickness>
			</element>
			<element id="49">
				<thickness>0.01,0.01,0.01,0.01</thickness>
			</element>
			<element id="50">
				<thickness>0.01,0.01,0.01,0.01</thickness>
			</element>
			<element id="51">
				<thickness>0.01,0.01,0.01,0.01</thickness>
			</element>
			<element id="52">
				<thickness>0.01,0.01,0.01,0.01</thickness>
			</element>
			<element id="53">
				<thickness>0.01,0.01,0.01,0.01</thickness>
			</element>
			<element id="54">
				<thickness>0.01,0.01,0.01,0.01</thickness>
			</element>
			<element id="55">
				<thickness>0.01,0.01,0.01,0.01</thickness>
			</element>
			<element id="56">
				<thickness>0.01,0.01,0.01,0.01</thickness>
			</element>
			<element id="57">
				<thickness>0.01,0.01,0.01,0.01</thickness>
			</element>
			<element id="58">
				<thickness>0.01,0.01,0.01,0.01</thickness>
			</element>
			<element id="59">
				<thickness>0.01,0.01,0.01,0.01</thickness>
			</element>
			<element id="60">
				<thickness>0.01,0.01,0.01,0.01</thickness>
			</element>
			<element id="61">
				<thickness>0.01,0.01,0.01,0.01</thickness>
			</element>
			<element id="62">
				<thickness>0.01,0.01,0.01,0.01</thickness>
			</element>
			<element id="63">
				<thickness>0.01,0.01,0.01,0.01</thickness>
			</element>
			<element id="64">
				<thickness>0.01,0.01,0.01,0.01</thickness>
			</element>
			<element id="65">
				<thickness>0.01,0.01,0.01,0.01</thickness>
			</element>
			<element id="66">
				<thickness>0.01,0.01,0.01,0.01</thickness>
			</element>
			<element id="67">
				<thickness>0.01,0.01,0.01,0.01</thickness>
			</element>
			<element id="68">
				<thickness>0.01,0.01,0.01,0.01</thickness>
			</element>
			<element id="69">
				<thickness>0.01,0.01,0.01,0.01</thickness>
			</element>
			<element id="70">
				<thickness>0.01,0.01,0.01,0.01</thickness>
			</element>
			<element id="71">
				<thickness>0.01,0.01,0.01,0.01</thickness>
			</element>
			<element id="72">
				<thickness>0.01,0.01,0.01,0.01</thickness>
			</element>
			<element id="73">
				<thickness>0.01,0.01,0.01,0.01</thickness>
			</element>
			<element id="74">
				<thickness>0.01,0.01,0.01,0.01</thickness>
			</element>
			<element id="75">
				<thickness>0.01,0.01,0.01,0.01</thickness>
			</element>
			<element id="76">
				<thickness>0.01,0.01,0.01,0.01</thickness>
			</element>
			<element id="77">
				<thickness>0.01,0.01,0.01,0.01</thickness>
			</element>
			<element id="78">
				<thickness>0.01,0.01,0.01,0.01</thickness>
			</element>
			<element id="79">
				<thickness>0.01,0.01,0.01,0.01</thickness>
			</element>
			<element id="80">
				<thickness>0.01,0.01,0.01,0.01</thickness>
			</element>
		</ElementData>
	</Geometry>
	<Boundary>
		<fix bc="z">
			<node id="1"/>
			<node id="2"/>
			<node id="3"/>
			<node id="4"/>
			<node id="5"/>
		</fix>
		<fix bc="y">
			<node id="1"/>
			<node id="2"/>
			<node id="3"/>
			<node id="4"/>
			<node id="5"/>
		</fix>
		<fix bc="x">
			<node id="1"/>
			<node id="2"/>
			<node id="3"/>
			<node id="4"/>
			<node id="5"/>
		</fix>
	</Boundary>
	<Contact>
		<contact type="rigid">
			<node id="101" rb="2"></node>
			<node id="102" rb="2"></node>
			<node id="103" rb="2"></node>
			<node id="104" rb="2"></node>
			<node id="105" rb="2"></node>
		</contact>
	</Contact>
	<Constraints>
		<rigid_body mat="2">
			<!--fixed bc="x"/-->
			<fixed bc="y"/>
			<fixed bc="z"/>
			<fixed bc="Rx"/>
			<fixed bc="Rz"/>
		</rigid_body>
		<rigid_body mat="2">
			<prescribed bc="Ry" lc="1">1</prescribed>
		</rigid_body>
	</Constraints>
	<LoadData>
		<loadcurve id="1" type="linear">
			<loadpoint>0,0</loadpoint>
			<loadpoint>1,1</loadpoint>
		</loadcurve>
	</LoadData>
	<Output>
		<plotfile type="febio">
			<var type="displacement"/>
			<var type="stress"/>
			<var type="shell thickness"/>
			<var type="shell director"/>
		</plotfile>
		<logfile>
			<element_data data="z">39</element_data>
		</logfile>		
	</Output>
</febio_spec>
