<?xml version="1.0" encoding="ISO-8859-1"?>
<!--
Problem Description:
	Box attached with shell is compressed against a multi-elements
	block attached with shell.
	Top face of box is prescribed z dispacement of -0.7 in time t=1.
	Top shell is 100 times stiffer to converge.
Main Features:
	quad4 shells
	sliding-tension-compression contact
Secondary Features:
Materials:
	Mooney-Rivlin
Degrees of Freedom: 488
Results
	Steps Completed: 10
	Equilibrium Iterations: 38
	Right Hand Evaluations: 50
	Siffness Reformations: 38
	Other:
		The maximum effective stress is 178 units at time t=1.
Comments:
-->
<febio_spec version="2.0">
	<Module type="solid"/>
	<Control>
		<time_steps>10</time_steps>
		<step_size>0.1</step_size>
		<max_refs>15</max_refs>
		<max_ups>0</max_ups>
		<dtol>0.001</dtol>
		<etol>0.01</etol>
		<rtol>0</rtol>
		<lstol>0.9</lstol>
		<time_stepper>
			<dtmin>0.01</dtmin>
			<dtmax>0.1</dtmax>
			<max_retries>5</max_retries>
			<opt_iter>10</opt_iter>
		</time_stepper>
		<analysis type="static"/>
	</Control>
	<Globals>
		<Constants>
			<T>293</T>
			<R>0.008314</R>
			<Fc>0.0965</Fc>
		</Constants>
	</Globals>
	<Material>
		<material id="1" name="mat1" type="Mooney-Rivlin">
				<density>1</density>
				<c1>100</c1>
				<c2>0</c2>
				<k>933.333</k>
		</material>
		<material id="2" name="mat1" type="Mooney-Rivlin">
				<density>1</density>
				<c1>100</c1>
				<c2>0</c2>
				<k>933.333</k>
		</material>
		<material id="3" name="mat1" type="Mooney-Rivlin">
				<density>1</density>
				<c1>10000</c1>
				<c2>0</c2>
				<k>93333.3</k>
		</material>
		<material id="4" name="mat1" type="Mooney-Rivlin">
				<density>1</density>
				<c1>100</c1>
				<c2>0</c2>
				<k>933.333</k>
		</material>
	</Material>
	<Geometry>
		<Nodes>
			<node id="1"> -5.0000000e-01, -5.0000000e-01,  0.0000000e+00</node>
			<node id="2"> -5.0000000e-01, -5.0000000e-01,  1.2500000e-01</node>
			<node id="3"> -5.0000000e-01, -5.0000000e-01,  2.5000000e-01</node>
			<node id="4"> -5.0000000e-01, -5.0000000e-01,  3.7500000e-01</node>
			<node id="5"> -5.0000000e-01, -5.0000000e-01,  5.0000000e-01</node>
			<node id="6"> -5.0000000e-01, -3.0000000e-01,  0.0000000e+00</node>
			<node id="7"> -5.0000000e-01, -3.0000000e-01,  1.2500000e-01</node>
			<node id="8"> -5.0000000e-01, -3.0000000e-01,  2.5000000e-01</node>
			<node id="9"> -5.0000000e-01, -3.0000000e-01,  3.7500000e-01</node>
			<node id="10"> -5.0000000e-01, -3.0000000e-01,  5.0000000e-01</node>
			<node id="11"> -5.0000000e-01, -1.0000000e-01,  0.0000000e+00</node>
			<node id="12"> -5.0000000e-01, -1.0000000e-01,  1.2500000e-01</node>
			<node id="13"> -5.0000000e-01, -1.0000000e-01,  2.5000000e-01</node>
			<node id="14"> -5.0000000e-01, -1.0000000e-01,  3.7500000e-01</node>
			<node id="15"> -5.0000000e-01, -1.0000000e-01,  5.0000000e-01</node>
			<node id="16"> -5.0000000e-01,  1.0000000e-01,  0.0000000e+00</node>
			<node id="17"> -5.0000000e-01,  1.0000000e-01,  1.2500000e-01</node>
			<node id="18"> -5.0000000e-01,  1.0000000e-01,  2.5000000e-01</node>
			<node id="19"> -5.0000000e-01,  1.0000000e-01,  3.7500000e-01</node>
			<node id="20"> -5.0000000e-01,  1.0000000e-01,  5.0000000e-01</node>
<!-- ... 168 like lines cut -->
		</Nodes>
		<Elements type="hex8" mat="1" elset="Part3">
			<elem id="1">     1,    31,    36,     6,     2,    32,    37,     7</elem>
			<elem id="2">     2,    32,    37,     7,     3,    33,    38,     8</elem>
			<elem id="3">     3,    33,    38,     8,     4,    34,    39,     9</elem>
			<elem id="4">     4,    34,    39,     9,     5,    35,    40,    10</elem>
			<elem id="5">     6,    36,    41,    11,     7,    37,    42,    12</elem>
			<elem id="6">     7,    37,    42,    12,     8,    38,    43,    13</elem>
			<elem id="7">     8,    38,    43,    13,     9,    39,    44,    14</elem>
			<elem id="8">     9,    39,    44,    14,    10,    40,    45,    15</elem>
			<elem id="9">    11,    41,    46,    16,    12,    42,    47,    17</elem>
			<elem id="10">    12,    42,    47,    17,    13,    43,    48,    18</elem>
			<elem id="11">    13,    43,    48,    18,    14,    44,    49,    19</elem>
			<elem id="12">    14,    44,    49,    19,    15,    45,    50,    20</elem>
			<elem id="13">    16,    46,    51,    21,    17,    47,    52,    22</elem>
			<elem id="14">    17,    47,    52,    22,    18,    48,    53,    23</elem>
			<elem id="15">    18,    48,    53,    23,    19,    49,    54,    24</elem>
			<elem id="16">    19,    49,    54,    24,    20,    50,    55,    25</elem>
			<elem id="17">    21,    51,    56,    26,    22,    52,    57,    27</elem>
			<elem id="18">    22,    52,    57,    27,    23,    53,    58,    28</elem>
			<elem id="19">    23,    53,    58,    28,    24,    54,    59,    29</elem>
			<elem id="20">    24,    54,    59,    29,    25,    55,    60,    30</elem>
<!-- ... 80 like lines cut -->
		</Elements>
		<Elements type="quad4" mat="2" elset="Part4">
			<elem id="101">     5,    35,    40,    10</elem>
			<elem id="102">    10,    40,    45,    15</elem>
			<elem id="103">    15,    45,    50,    20</elem>
			<elem id="104">    20,    50,    55,    25</elem>
			<elem id="105">    25,    55,    60,    30</elem>
			<elem id="106">    35,    65,    70,    40</elem>
			<elem id="107">    40,    70,    75,    45</elem>
			<elem id="108">    45,    75,    80,    50</elem>
			<elem id="109">    50,    80,    85,    55</elem>
			<elem id="110">    55,    85,    90,    60</elem>
			<elem id="111">    65,    95,   100,    70</elem>
			<elem id="112">    70,   100,   105,    75</elem>
			<elem id="113">    75,   105,   110,    80</elem>
			<elem id="114">    80,   110,   115,    85</elem>
			<elem id="115">    85,   115,   120,    90</elem>
			<elem id="116">    95,   125,   130,   100</elem>
			<elem id="117">   100,   130,   135,   105</elem>
			<elem id="118">   105,   135,   140,   110</elem>
			<elem id="119">   110,   140,   145,   115</elem>
			<elem id="120">   115,   145,   150,   120</elem>
<!-- ... 5 like lines cut -->
		</Elements>
		<Elements type="hex8" mat="4" elset="Part7">
			<elem id="126">   181,   185,   187,   183,   182,   186,   188,   184</elem>
		</Elements>
		<Elements type="quad4" mat="3" elset="Part8">
			<elem id="127">   181,   183,   187,   185</elem>
		</Elements>
		<ElementData>
			<element id="101">
				<thickness>0.01,0.01,0.01,0.01</thickness>
			</element>
			<element id="102">
				<thickness>0.01,0.01,0.01,0.01</thickness>
			</element>
			<element id="103">
				<thickness>0.01,0.01,0.01,0.01</thickness>
			</element>
			<element id="104">
				<thickness>0.01,0.01,0.01,0.01</thickness>
			</element>
			<element id="105">
				<thickness>0.01,0.01,0.01,0.01</thickness>
			</element>
			<element id="106">
				<thickness>0.01,0.01,0.01,0.01</thickness>
			</element>
			<element id="107">
				<thickness>0.01,0.01,0.01,0.01</thickness>
			</element>
			<element id="108">
				<thickness>0.01,0.01,0.01,0.01</thickness>
			</element>
			<element id="109">
				<thickness>0.01,0.01,0.01,0.01</thickness>
			</element>
			<element id="110">
				<thickness>0.01,0.01,0.01,0.01</thickness>
			</element>
			<element id="111">
				<thickness>0.01,0.01,0.01,0.01</thickness>
			</element>
			<element id="112">
				<thickness>0.01,0.01,0.01,0.01</thickness>
			</element>
			<element id="113">
				<thickness>0.01,0.01,0.01,0.01</thickness>
			</element>
			<element id="114">
				<thickness>0.01,0.01,0.01,0.01</thickness>
			</element>
			<element id="115">
				<thickness>0.01,0.01,0.01,0.01</thickness>
			</element>
			<element id="116">
				<thickness>0.01,0.01,0.01,0.01</thickness>
			</element>
			<element id="117">
				<thickness>0.01,0.01,0.01,0.01</thickness>
			</element>
			<element id="118">
				<thickness>0.01,0.01,0.01,0.01</thickness>
			</element>
			<element id="119">
				<thickness>0.01,0.01,0.01,0.01</thickness>
			</element>
			<element id="120">
				<thickness>0.01,0.01,0.01,0.01</thickness>
			</element>
			<element id="121">
				<thickness>0.01,0.01,0.01,0.01</thickness>
			</element>
			<element id="122">
				<thickness>0.01,0.01,0.01,0.01</thickness>
			</element>
			<element id="123">
				<thickness>0.01,0.01,0.01,0.01</thickness>
			</element>
			<element id="124">
				<thickness>0.01,0.01,0.01,0.01</thickness>
			</element>
			<element id="125">
				<thickness>0.01,0.01,0.01,0.01</thickness>
			</element>
			<element id="127">
				<thickness>0.01,0.01,0.01,0.01</thickness>
			</element>
		</ElementData>
		<NodeSet name="box1-z">
			<node id="1"/>
			<node id="6"/>
			<node id="11"/>
			<node id="16"/>
			<node id="21"/>
			<node id="26"/>
			<node id="31"/>
			<node id="36"/>
			<node id="41"/>
			<node id="46"/>
			<node id="51"/>
			<node id="56"/>
			<node id="61"/>
			<node id="66"/>
			<node id="71"/>
			<node id="76"/>
			<node id="81"/>
			<node id="86"/>
			<node id="91"/>
			<node id="96"/>
<!-- ... 16 like lines cut -->
		</NodeSet>
		<NodeSet name="box1z">
			<node id="5"/>
			<node id="10"/>
			<node id="15"/>
			<node id="20"/>
			<node id="25"/>
			<node id="30"/>
			<node id="35"/>
			<node id="40"/>
			<node id="45"/>
			<node id="50"/>
			<node id="55"/>
			<node id="60"/>
			<node id="65"/>
			<node id="70"/>
			<node id="75"/>
			<node id="80"/>
			<node id="85"/>
			<node id="90"/>
			<node id="95"/>
			<node id="100"/>
<!-- ... 16 like lines cut -->
		</NodeSet>
		<NodeSet name="box2-z">
			<node id="181"/>
			<node id="183"/>
			<node id="185"/>
			<node id="187"/>
		</NodeSet>
		<NodeSet name="box2z">
			<node id="182"/>
			<node id="184"/>
			<node id="186"/>
			<node id="188"/>
		</NodeSet>
		<Surface name="box1z">
				<quad4 id="1">     5,    35,    40,    10</quad4>
				<quad4 id="2">    10,    40,    45,    15</quad4>
				<quad4 id="3">    15,    45,    50,    20</quad4>
				<quad4 id="4">    20,    50,    55,    25</quad4>
				<quad4 id="5">    25,    55,    60,    30</quad4>
				<quad4 id="6">    35,    65,    70,    40</quad4>
				<quad4 id="7">    40,    70,    75,    45</quad4>
				<quad4 id="8">    45,    75,    80,    50</quad4>
				<quad4 id="9">    50,    80,    85,    55</quad4>
				<quad4 id="10">    55,    85,    90,    60</quad4>
				<quad4 id="11">    65,    95,   100,    70</quad4>
				<quad4 id="12">    70,   100,   105,    75</quad4>
				<quad4 id="13">    75,   105,   110,    80</quad4>
				<quad4 id="14">    80,   110,   115,    85</quad4>
				<quad4 id="15">    85,   115,   120,    90</quad4>
				<quad4 id="16">    95,   125,   130,   100</quad4>
				<quad4 id="17">   100,   130,   135,   105</quad4>
				<quad4 id="18">   105,   135,   140,   110</quad4>
				<quad4 id="19">   110,   140,   145,   115</quad4>
				<quad4 id="20">   115,   145,   150,   120</quad4>
<!-- ... 5 like lines cut -->
		</Surface>
		<Surface name="box2-z">
				<quad4 id="1">   183,   187,   185,   181</quad4>
		</Surface>
	</Geometry>
	<Boundary>
		<fix bc="xyz" set="box1-z"/>
		<fix bc="xy" set="box1z"/>
		<fix bc="xy" set="box2-z"/>
		<fix bc="xy" set="box2z"/>
		<prescribe bc="z" lc="1" set="box2z">1</prescribe>
	</Boundary>
	<Contact>
		<contact type="sliding-tension-compression">
			<laugon>0</laugon>
			<tolerance>0.01</tolerance>
			<penalty>100</penalty>
			<two_pass>1</two_pass>
			<auto_penalty>1</auto_penalty>
         			<symmetric_stiffness>0</symmetric_stiffness>
			<search_radius>1</search_radius>
         			<tension>0</tension>
			<search_tol>0.01</search_tol>
			<minaug>0</minaug>
			<maxaug>10</maxaug>
			<gaptol>0</gaptol>
			<seg_up>0</seg_up>
			<surface type="master" set="box1z"/>
			<surface type="slave" set="box2-z"/>
		</contact>
	</Contact>
	<LoadData>
		<loadcurve id="1" type="linear">
			<point>0,0</point>
			<point>0.1,-0.5</point>
			<point>1,-0.7</point>
		</loadcurve>
	</LoadData>
	<Output>
		<plotfile type="febio">
			<var type="displacement"/>
			<var type="stress"/>
			<var type="shell director"/>
			<var type="shell strain"/>
			<var type="contact gap"/>
			<var type="contact pressure"/>
			<var type="relative volume"/>
		</plotfile>
		<logfile>
			<node_data data="z">4</node_data>
		</logfile>
	</Output>
</febio_spec>
