<?xml version="1.0" encoding="ISO-8859-1"?>
<!--
Problem Description:
	Shell verification problem.  Compare to analytical solution for cantilever beam.
	A 10x1 tri6 element shell sheet is fixed at one end and
	loaded at the opposite end using a downward force of
	0.001. The exact solution for the tip deflection is 0.004.
Main Features:
	Shells
	Nodal Force
Secondary Features:
	tri6
Materials:
	Isotropic Elastic
Degrees of Freedom: 300
Results:
	Steps Completed: 10
	Equilibrium Iterations: 20
	Right Hand Evaluations: 30
	Siffness Reformations: 20
	Other:
		The sheet has a maximum displacement of 0.003991 units at time t=1.
Comments:
-->
<febio_spec version="2.0">
	<Module type="solid"/>
	<Control>
		<time_steps>10</time_steps>
		<step_size>0.1</step_size>
		<max_refs>15</max_refs>
		<max_ups>0</max_ups>
		<dtol>0.001</dtol>
		<etol>0.01</etol>
		<rtol>0</rtol>
		<lstol>0.9</lstol>
		<time_stepper>
			<dtmin>0.01</dtmin>
			<dtmax>0.1</dtmax>
			<max_retries>5</max_retries>
			<opt_iter>10</opt_iter>
		</time_stepper>
		<analysis type="static"/>
	</Control>
	<Globals>
		<Constants>
			<T>0</T>
			<R>0</R>
			<Fc>0</Fc>
		</Constants>
	</Globals>
	<Material>
		<material id="1" name="Material1" type="neo-Hookean">
			<density>1</density>
			<E>1e+06</E>
			<v>0</v>
		</material>
	</Material>
	<Geometry>
		<Nodes>
			<node id="1">  0.0000000e+00,  0.0000000e+00,  0.0000000e+00</node>
			<node id="2">  0.0000000e+00,  5.0000000e-01,  0.0000000e+00</node>
			<node id="3">  0.0000000e+00,  1.0000000e+00,  0.0000000e+00</node>
			<node id="4">  5.0000000e-01,  0.0000000e+00,  0.0000000e+00</node>
			<node id="5">  5.0000000e-01,  1.0000000e+00,  0.0000000e+00</node>
			<node id="6">  1.0000000e+00,  0.0000000e+00,  0.0000000e+00</node>
			<node id="7">  1.0000000e+00,  5.0000000e-01,  0.0000000e+00</node>
			<node id="8">  1.0000000e+00,  1.0000000e+00,  0.0000000e+00</node>
			<node id="9">  1.5000000e+00,  0.0000000e+00,  0.0000000e+00</node>
			<node id="10">  1.5000000e+00,  1.0000000e+00,  0.0000000e+00</node>
			<node id="11">  2.0000000e+00,  0.0000000e+00,  0.0000000e+00</node>
			<node id="12">  2.0000000e+00,  5.0000000e-01,  0.0000000e+00</node>
			<node id="13">  2.0000000e+00,  1.0000000e+00,  0.0000000e+00</node>
			<node id="14">  2.5000000e+00,  0.0000000e+00,  0.0000000e+00</node>
			<node id="15">  2.5000000e+00,  1.0000000e+00,  0.0000000e+00</node>
			<node id="16">  3.0000000e+00,  0.0000000e+00,  0.0000000e+00</node>
			<node id="17">  3.0000000e+00,  5.0000000e-01,  0.0000000e+00</node>
			<node id="18">  3.0000000e+00,  1.0000000e+00,  0.0000000e+00</node>
			<node id="19">  3.5000000e+00,  0.0000000e+00,  0.0000000e+00</node>
			<node id="20">  3.5000000e+00,  1.0000000e+00,  0.0000000e+00</node>
<!-- ... 74 like lines cut -->
		</Nodes>
		<Elements type="tri6" mat="1" elset="Part2">
			<elem id="1">     1,     6,     8,    54,    58,    55</elem>
			<elem id="2">     8,     3,     1,    57,    56,    55</elem>
			<elem id="3">     6,    11,    13,    59,    62,    60</elem>
			<elem id="4">    13,     8,     6,    61,    58,    60</elem>
			<elem id="5">    11,    16,    18,    63,    66,    64</elem>
			<elem id="6">    18,    13,    11,    65,    62,    64</elem>
			<elem id="7">    16,    21,    23,    67,    70,    68</elem>
			<elem id="8">    23,    18,    16,    69,    66,    68</elem>
			<elem id="9">    21,    26,    28,    71,    74,    72</elem>
			<elem id="10">    28,    23,    21,    73,    70,    72</elem>
			<elem id="11">    26,    31,    33,    75,    78,    76</elem>
			<elem id="12">    33,    28,    26,    77,    74,    76</elem>
			<elem id="13">    31,    36,    38,    79,    82,    80</elem>
			<elem id="14">    38,    33,    31,    81,    78,    80</elem>
			<elem id="15">    36,    41,    43,    83,    86,    84</elem>
			<elem id="16">    43,    38,    36,    85,    82,    84</elem>
			<elem id="17">    41,    46,    48,    87,    90,    88</elem>
			<elem id="18">    48,    43,    41,    89,    86,    88</elem>
			<elem id="19">    46,    51,    53,    91,    94,    92</elem>
			<elem id="20">    53,    48,    46,    93,    90,    92</elem>
		</Elements>
		<ElementData>
			<element id="1">
				<thickness>0.1,0.1,0.1,0.1,0.1,0.1</thickness>
			</element>
			<element id="2">
				<thickness>0.1,0.1,0.1,0.1,0.1,0.1</thickness>
			</element>
			<element id="3">
				<thickness>0.1,0.1,0.1,0.1,0.1,0.1</thickness>
			</element>
			<element id="4">
				<thickness>0.1,0.1,0.1,0.1,0.1,0.1</thickness>
			</element>
			<element id="5">
				<thickness>0.1,0.1,0.1,0.1,0.1,0.1</thickness>
			</element>
			<element id="6">
				<thickness>0.1,0.1,0.1,0.1,0.1,0.1</thickness>
			</element>
			<element id="7">
				<thickness>0.1,0.1,0.1,0.1,0.1,0.1</thickness>
			</element>
			<element id="8">
				<thickness>0.1,0.1,0.1,0.1,0.1,0.1</thickness>
			</element>
			<element id="9">
				<thickness>0.1,0.1,0.1,0.1,0.1,0.1</thickness>
			</element>
			<element id="10">
				<thickness>0.1,0.1,0.1,0.1,0.1,0.1</thickness>
			</element>
			<element id="11">
				<thickness>0.1,0.1,0.1,0.1,0.1,0.1</thickness>
			</element>
			<element id="12">
				<thickness>0.1,0.1,0.1,0.1,0.1,0.1</thickness>
			</element>
			<element id="13">
				<thickness>0.1,0.1,0.1,0.1,0.1,0.1</thickness>
			</element>
			<element id="14">
				<thickness>0.1,0.1,0.1,0.1,0.1,0.1</thickness>
			</element>
			<element id="15">
				<thickness>0.1,0.1,0.1,0.1,0.1,0.1</thickness>
			</element>
			<element id="16">
				<thickness>0.1,0.1,0.1,0.1,0.1,0.1</thickness>
			</element>
			<element id="17">
				<thickness>0.1,0.1,0.1,0.1,0.1,0.1</thickness>
			</element>
			<element id="18">
				<thickness>0.1,0.1,0.1,0.1,0.1,0.1</thickness>
			</element>
			<element id="19">
				<thickness>0.1,0.1,0.1,0.1,0.1,0.1</thickness>
			</element>
			<element id="20">
				<thickness>0.1,0.1,0.1,0.1,0.1,0.1</thickness>
			</element>
		</ElementData>
	</Geometry>
	<Boundary>
		<fix bc="xyz">
			<node id="1"/>
			<node id="3"/>
			<node id="56"/>
		</fix>
		<fix bc="uvw">
			<node id="1"/>
			<node id="3"/>
			<node id="56"/>
		</fix>
	</Boundary>
	<Loads>
		<nodal_load bc="z" lc="1">
			<node id="51">-0.0005</node>
			<node id="53">-0.0005</node>
		</nodal_load>
	</Loads>
	<LoadData>
		<loadcurve id="1" type="smooth">
			<point>0,0</point>
			<point>1,1</point>
		</loadcurve>
	</LoadData>
	<Output>
		<plotfile type="febio">
			<var type="displacement"/>
			<var type="shell director"/>
			<var type="shell strain"/>
			<var type="shell thickness"/>
			<var type="stress"/>
		</plotfile>
	</Output>
</febio_spec>
