<?xml version="1.0" encoding="ISO-8859-1"?>
<!--
Problem Description:
	Box (20-node hex) attached with shell(quad8) is compressed
	against a multi-elements block(20-node hex) attached with shell (quad8).
	Top face of box is prescribed z dispacement of -0.7 in time t=1.
	Top shell is 100 times stiffer to converge.
Main Features:
	quad8 shells
	sliding-tension-compression contact
Secondary Features:
Materials:
	Mooney-Rivlin
Degrees of Freedom: 2044
Results
	Steps Completed: 10
	Equilibrium Iterations: 36
	Right Hand Evaluations: 46
	Siffness Reformations: 36
	Other:
		The maximum effective stress is 180 units at time t=1.
Comments:
-->
<febio_spec version="2.0">
	<Module type="solid"/>
	<Control>
		<time_steps>10</time_steps>
		<step_size>0.1</step_size>
		<max_refs>15</max_refs>
		<max_ups>0</max_ups>
		<dtol>0.001</dtol>
		<etol>0.01</etol>
		<rtol>0</rtol>
		<lstol>0.9</lstol>
		<time_stepper>
			<dtmin>0.01</dtmin>
			<dtmax>0.1</dtmax>
			<max_retries>5</max_retries>
			<opt_iter>10</opt_iter>
		</time_stepper>
		<analysis type="static"/>
	</Control>
	<Globals>
		<Constants>
			<T>293</T>
			<R>0.008314</R>
			<Fc>0.0965</Fc>
		</Constants>
	</Globals>
	<Material>
		<material id="1" name="box1" type="Mooney-Rivlin">
				<density>1</density>
				<c1>100</c1>
				<c2>0</c2>
				<k>933.333</k>
		</material>
		<material id="2" name="shell1" type="Mooney-Rivlin">
				<density>1</density>
				<c1>100</c1>
				<c2>0</c2>
				<k>933.333</k>
		</material>
		<material id="3" name="shell2" type="Mooney-Rivlin">
				<density>1</density>
				<c1>10000</c1>
				<c2>0</c2>
				<k>93333.3</k>
		</material>
		<material id="4" name="box2" type="Mooney-Rivlin">
				<density>1</density>
				<c1>100</c1>
				<c2>0</c2>
				<k>933.333</k>
		</material>
	</Material>
	<Geometry>
		<Nodes>
			<node id="1"> -5.0000000e-01, -5.0000000e-01,  0.0000000e+00</node>
			<node id="2"> -5.0000000e-01, -5.0000000e-01,  6.2500000e-02</node>
			<node id="3"> -5.0000000e-01, -5.0000000e-01,  1.2500000e-01</node>
			<node id="4"> -5.0000000e-01, -5.0000000e-01,  1.8750000e-01</node>
			<node id="5"> -5.0000000e-01, -5.0000000e-01,  2.5000000e-01</node>
			<node id="6"> -5.0000000e-01, -5.0000000e-01,  3.1250000e-01</node>
			<node id="7"> -5.0000000e-01, -5.0000000e-01,  3.7500000e-01</node>
			<node id="8"> -5.0000000e-01, -5.0000000e-01,  4.3750000e-01</node>
			<node id="9"> -5.0000000e-01, -5.0000000e-01,  5.0000000e-01</node>
			<node id="10"> -5.0000000e-01, -4.0000000e-01,  0.0000000e+00</node>
			<node id="11"> -5.0000000e-01, -4.0000000e-01,  1.2500000e-01</node>
			<node id="12"> -5.0000000e-01, -4.0000000e-01,  2.5000000e-01</node>
			<node id="13"> -5.0000000e-01, -4.0000000e-01,  3.7500000e-01</node>
			<node id="14"> -5.0000000e-01, -4.0000000e-01,  5.0000000e-01</node>
			<node id="15"> -5.0000000e-01, -3.0000000e-01,  0.0000000e+00</node>
			<node id="16"> -5.0000000e-01, -3.0000000e-01,  6.2500000e-02</node>
			<node id="17"> -5.0000000e-01, -3.0000000e-01,  1.2500000e-01</node>
			<node id="18"> -5.0000000e-01, -3.0000000e-01,  1.8750000e-01</node>
			<node id="19"> -5.0000000e-01, -3.0000000e-01,  2.5000000e-01</node>
			<node id="20"> -5.0000000e-01, -3.0000000e-01,  3.1250000e-01</node>
<!-- ... 624 like lines cut -->
		</Nodes>
		<Elements type="hex20" mat="1" elset="Part3">
			<elem id="1">     1,   110,   124,    15,     3,   112,   126,    17,    80,   119,    85,    10,    81,   120,    86,    11,     2,   111,   125,    16</elem>
			<elem id="2">     3,   112,   126,    17,     5,   114,   128,    19,    81,   120,    86,    11,    82,   121,    87,    12,     4,   113,   127,    18</elem>
			<elem id="3">     5,   114,   128,    19,     7,   116,   130,    21,    82,   121,    87,    12,    83,   122,    88,    13,     6,   115,   129,    20</elem>
			<elem id="4">     7,   116,   130,    21,     9,   118,   132,    23,    83,   122,    88,    13,    84,   123,    89,    14,     8,   117,   131,    22</elem>
			<elem id="5">    15,   124,   138,    29,    17,   126,   140,    31,    85,   133,    90,    24,    86,   134,    91,    25,    16,   125,   139,    30</elem>
			<elem id="6">    17,   126,   140,    31,    19,   128,   142,    33,    86,   134,    91,    25,    87,   135,    92,    26,    18,   127,   141,    32</elem>
			<elem id="7">    19,   128,   142,    33,    21,   130,   144,    35,    87,   135,    92,    26,    88,   136,    93,    27,    20,   129,   143,    34</elem>
			<elem id="8">    21,   130,   144,    35,    23,   132,   146,    37,    88,   136,    93,    27,    89,   137,    94,    28,    22,   131,   145,    36</elem>
			<elem id="9">    29,   138,   152,    43,    31,   140,   154,    45,    90,   147,    95,    38,    91,   148,    96,    39,    30,   139,   153,    44</elem>
			<elem id="10">    31,   140,   154,    45,    33,   142,   156,    47,    91,   148,    96,    39,    92,   149,    97,    40,    32,   141,   155,    46</elem>
			<elem id="11">    33,   142,   156,    47,    35,   144,   158,    49,    92,   149,    97,    40,    93,   150,    98,    41,    34,   143,   157,    48</elem>
			<elem id="12">    35,   144,   158,    49,    37,   146,   160,    51,    93,   150,    98,    41,    94,   151,    99,    42,    36,   145,   159,    50</elem>
			<elem id="13">    43,   152,   166,    57,    45,   154,   168,    59,    95,   161,   100,    52,    96,   162,   101,    53,    44,   153,   167,    58</elem>
			<elem id="14">    45,   154,   168,    59,    47,   156,   170,    61,    96,   162,   101,    53,    97,   163,   102,    54,    46,   155,   169,    60</elem>
			<elem id="15">    47,   156,   170,    61,    49,   158,   172,    63,    97,   163,   102,    54,    98,   164,   103,    55,    48,   157,   171,    62</elem>
			<elem id="16">    49,   158,   172,    63,    51,   160,   174,    65,    98,   164,   103,    55,    99,   165,   104,    56,    50,   159,   173,    64</elem>
			<elem id="17">    57,   166,   180,    71,    59,   168,   182,    73,   100,   175,   105,    66,   101,   176,   106,    67,    58,   167,   181,    72</elem>
			<elem id="18">    59,   168,   182,    73,    61,   170,   184,    75,   101,   176,   106,    67,   102,   177,   107,    68,    60,   169,   183,    74</elem>
			<elem id="19">    61,   170,   184,    75,    63,   172,   186,    77,   102,   177,   107,    68,   103,   178,   108,    69,    62,   171,   185,    76</elem>
			<elem id="20">    63,   172,   186,    77,    65,   174,   188,    79,   103,   178,   108,    69,   104,   179,   109,    70,    64,   173,   187,    78</elem>
<!-- ... 80 like lines cut -->
		</Elements>
		<Elements type="quad8" mat="2" elset="Part2">
			<elem id="101">     9,   118,   132,    23,    84,   123,    89,    14</elem>
			<elem id="102">    23,   132,   146,    37,    89,   137,    94,    28</elem>
			<elem id="103">    37,   146,   160,    51,    94,   151,    99,    42</elem>
			<elem id="104">    51,   160,   174,    65,    99,   165,   104,    56</elem>
			<elem id="105">    65,   174,   188,    79,   104,   179,   109,    70</elem>
			<elem id="106">   118,   227,   241,   132,   193,   232,   198,   123</elem>
			<elem id="107">   132,   241,   255,   146,   198,   246,   203,   137</elem>
			<elem id="108">   146,   255,   269,   160,   203,   260,   208,   151</elem>
			<elem id="109">   160,   269,   283,   174,   208,   274,   213,   165</elem>
			<elem id="110">   174,   283,   297,   188,   213,   288,   218,   179</elem>
			<elem id="111">   227,   336,   350,   241,   302,   341,   307,   232</elem>
			<elem id="112">   241,   350,   364,   255,   307,   355,   312,   246</elem>
			<elem id="113">   255,   364,   378,   269,   312,   369,   317,   260</elem>
			<elem id="114">   269,   378,   392,   283,   317,   383,   322,   274</elem>
			<elem id="115">   283,   392,   406,   297,   322,   397,   327,   288</elem>
			<elem id="116">   336,   445,   459,   350,   411,   450,   416,   341</elem>
			<elem id="117">   350,   459,   473,   364,   416,   464,   421,   355</elem>
			<elem id="118">   364,   473,   487,   378,   421,   478,   426,   369</elem>
			<elem id="119">   378,   487,   501,   392,   426,   492,   431,   383</elem>
			<elem id="120">   392,   501,   515,   406,   431,   506,   436,   397</elem>
<!-- ... 5 like lines cut -->
		</Elements>
		<Elements type="hex20" mat="4" elset="Part4">
			<elem id="126">   625,   637,   642,   630,   627,   639,   644,   632,   633,   640,   635,   628,   634,   641,   636,   629,   626,   638,   643,   631</elem>
		</Elements>
		<Elements type="quad8" mat="3" elset="Part5">
			<elem id="127">   625,   630,   642,   637,   628,   635,   640,   633</elem>
		</Elements>
		<ElementData>
			<element id="101">
				<thickness>0.01,0.01,0.01,0.01,0.01,0.01,0.01,0.01</thickness>
			</element>
			<element id="102">
				<thickness>0.01,0.01,0.01,0.01,0.01,0.01,0.01,0.01</thickness>
			</element>
			<element id="103">
				<thickness>0.01,0.01,0.01,0.01,0.01,0.01,0.01,0.01</thickness>
			</element>
			<element id="104">
				<thickness>0.01,0.01,0.01,0.01,0.01,0.01,0.01,0.01</thickness>
			</element>
			<element id="105">
				<thickness>0.01,0.01,0.01,0.01,0.01,0.01,0.01,0.01</thickness>
			</element>
			<element id="106">
				<thickness>0.01,0.01,0.01,0.01,0.01,0.01,0.01,0.01</thickness>
			</element>
			<element id="107">
				<thickness>0.01,0.01,0.01,0.01,0.01,0.01,0.01,0.01</thickness>
			</element>
			<element id="108">
				<thickness>0.01,0.01,0.01,0.01,0.01,0.01,0.01,0.01</thickness>
			</element>
			<element id="109">
				<thickness>0.01,0.01,0.01,0.01,0.01,0.01,0.01,0.01</thickness>
			</element>
			<element id="110">
				<thickness>0.01,0.01,0.01,0.01,0.01,0.01,0.01,0.01</thickness>
			</element>
			<element id="111">
				<thickness>0.01,0.01,0.01,0.01,0.01,0.01,0.01,0.01</thickness>
			</element>
			<element id="112">
				<thickness>0.01,0.01,0.01,0.01,0.01,0.01,0.01,0.01</thickness>
			</element>
			<element id="113">
				<thickness>0.01,0.01,0.01,0.01,0.01,0.01,0.01,0.01</thickness>
			</element>
			<element id="114">
				<thickness>0.01,0.01,0.01,0.01,0.01,0.01,0.01,0.01</thickness>
			</element>
			<element id="115">
				<thickness>0.01,0.01,0.01,0.01,0.01,0.01,0.01,0.01</thickness>
			</element>
			<element id="116">
				<thickness>0.01,0.01,0.01,0.01,0.01,0.01,0.01,0.01</thickness>
			</element>
			<element id="117">
				<thickness>0.01,0.01,0.01,0.01,0.01,0.01,0.01,0.01</thickness>
			</element>
			<element id="118">
				<thickness>0.01,0.01,0.01,0.01,0.01,0.01,0.01,0.01</thickness>
			</element>
			<element id="119">
				<thickness>0.01,0.01,0.01,0.01,0.01,0.01,0.01,0.01</thickness>
			</element>
			<element id="120">
				<thickness>0.01,0.01,0.01,0.01,0.01,0.01,0.01,0.01</thickness>
			</element>
			<element id="121">
				<thickness>0.01,0.01,0.01,0.01,0.01,0.01,0.01,0.01</thickness>
			</element>
			<element id="122">
				<thickness>0.01,0.01,0.01,0.01,0.01,0.01,0.01,0.01</thickness>
			</element>
			<element id="123">
				<thickness>0.01,0.01,0.01,0.01,0.01,0.01,0.01,0.01</thickness>
			</element>
			<element id="124">
				<thickness>0.01,0.01,0.01,0.01,0.01,0.01,0.01,0.01</thickness>
			</element>
			<element id="125">
				<thickness>0.01,0.01,0.01,0.01,0.01,0.01,0.01,0.01</thickness>
			</element>
			<element id="127">
				<thickness>0.01,0.01,0.01,0.01,0.01,0.01,0.01,0.01</thickness>
			</element>
		</ElementData>
		<NodeSet name="box1-z">
			<node id="1"/>
			<node id="10"/>
			<node id="15"/>
			<node id="24"/>
			<node id="29"/>
			<node id="38"/>
			<node id="43"/>
			<node id="52"/>
			<node id="57"/>
			<node id="66"/>
			<node id="71"/>
			<node id="80"/>
			<node id="85"/>
			<node id="90"/>
			<node id="95"/>
			<node id="100"/>
			<node id="105"/>
			<node id="110"/>
			<node id="119"/>
			<node id="124"/>
<!-- ... 76 like lines cut -->
		</NodeSet>
		<NodeSet name="box1z">
			<node id="9"/>
			<node id="14"/>
			<node id="23"/>
			<node id="28"/>
			<node id="37"/>
			<node id="42"/>
			<node id="51"/>
			<node id="56"/>
			<node id="65"/>
			<node id="70"/>
			<node id="79"/>
			<node id="84"/>
			<node id="89"/>
			<node id="94"/>
			<node id="99"/>
			<node id="104"/>
			<node id="109"/>
			<node id="118"/>
			<node id="123"/>
			<node id="132"/>
<!-- ... 76 like lines cut -->
		</NodeSet>
		<NodeSet name="box2-z">
			<node id="625"/>
			<node id="628"/>
			<node id="630"/>
			<node id="633"/>
			<node id="635"/>
			<node id="637"/>
			<node id="640"/>
			<node id="642"/>
		</NodeSet>
		<NodeSet name="box2z">
			<node id="627"/>
			<node id="629"/>
			<node id="632"/>
			<node id="634"/>
			<node id="636"/>
			<node id="639"/>
			<node id="641"/>
			<node id="644"/>
		</NodeSet>
		<Surface name="box1z">
				<quad8 id="1">     9,   118,   132,    23,    84,   123,    89,    14</quad8>
				<quad8 id="2">    23,   132,   146,    37,    89,   137,    94,    28</quad8>
				<quad8 id="3">    37,   146,   160,    51,    94,   151,    99,    42</quad8>
				<quad8 id="4">    51,   160,   174,    65,    99,   165,   104,    56</quad8>
				<quad8 id="5">    65,   174,   188,    79,   104,   179,   109,    70</quad8>
				<quad8 id="6">   118,   227,   241,   132,   193,   232,   198,   123</quad8>
				<quad8 id="7">   132,   241,   255,   146,   198,   246,   203,   137</quad8>
				<quad8 id="8">   146,   255,   269,   160,   203,   260,   208,   151</quad8>
				<quad8 id="9">   160,   269,   283,   174,   208,   274,   213,   165</quad8>
				<quad8 id="10">   174,   283,   297,   188,   213,   288,   218,   179</quad8>
				<quad8 id="11">   227,   336,   350,   241,   302,   341,   307,   232</quad8>
				<quad8 id="12">   241,   350,   364,   255,   307,   355,   312,   246</quad8>
				<quad8 id="13">   255,   364,   378,   269,   312,   369,   317,   260</quad8>
				<quad8 id="14">   269,   378,   392,   283,   317,   383,   322,   274</quad8>
				<quad8 id="15">   283,   392,   406,   297,   322,   397,   327,   288</quad8>
				<quad8 id="16">   336,   445,   459,   350,   411,   450,   416,   341</quad8>
				<quad8 id="17">   350,   459,   473,   364,   416,   464,   421,   355</quad8>
				<quad8 id="18">   364,   473,   487,   378,   421,   478,   426,   369</quad8>
				<quad8 id="19">   378,   487,   501,   392,   426,   492,   431,   383</quad8>
				<quad8 id="20">   392,   501,   515,   406,   431,   506,   436,   397</quad8>
<!-- ... 5 like lines cut -->
		</Surface>
		<Surface name="box2-z">
				<quad8 id="1">   630,   642,   637,   625,   635,   640,   633,   628</quad8>
		</Surface>
	</Geometry>
	<Boundary>
		<fix bc="xyz" set="box1-z"/>
		<fix bc="xy" set="box1z"/>
		<fix bc="xy" set="box2-z"/>
		<fix bc="xy" set="box2z"/>
		<prescribe bc="z" lc="1" set="box2z">1</prescribe>
	</Boundary>
	<Contact>
		<contact type="sliding-tension-compression">
			<laugon>0</laugon>
			<tolerance>0.01</tolerance>
			<penalty>100</penalty>
			<two_pass>1</two_pass>
			<auto_penalty>1</auto_penalty>
         			<symmetric_stiffness>0</symmetric_stiffness>
			<search_radius>1</search_radius>
         			<tension>0</tension>
			<search_tol>0.01</search_tol>
			<minaug>0</minaug>
			<maxaug>10</maxaug>
			<gaptol>0</gaptol>
			<seg_up>0</seg_up>
			<surface type="master" set="box1z"/>
			<surface type="slave" set="box2-z"/>
		</contact>
	</Contact>
	<LoadData>
		<loadcurve id="1" type="linear">
			<point>0,0</point>
			<point>0.1,-0.5</point>
			<point>1,-0.7</point>
		</loadcurve>
	</LoadData>
	<Output>
		<plotfile type="febio">
			<var type="displacement"/>
			<var type="stress"/>
			<var type="shell director"/>
			<var type="shell strain"/>
			<var type="contact gap"/>
			<var type="contact pressure"/>
			<var type="relative volume"/>
		</plotfile>
		<logfile>
			<node_data data="z">4</node_data>
		</logfile>
	</Output>
</febio_spec>
