<?xml version="1.0" encoding="ISO-8859-1"?>
<!--
Problem Description:
	Block with shell is compressed and slided against a larger and softer block with shell.
	Top face of top blox is prescribed z dispacement of -0.64 and then x displacement of -0.8 at t=2.
	Both shells have same stiffness to converge
Main Features:
	quad4 shells
	sliding-tension-compression contact
Secondary Features:
Materials:
	Mooney-Rivlin
Degrees of Freedom: 3091
Results
	Steps Completed: 25
	Equilibrium Iterations: 113
	Right Hand Evaluations: 149
	Siffness Reformations: 113
	Other:
		The maximum effective stress is 20.4 units at time t=1.
Comments:
-->
<febio_spec version="2.0">
	<Module type="solid"/>
	<Control>
		<time_steps>200</time_steps>
		<step_size>0.01</step_size>
		<max_refs>15</max_refs>
		<max_ups>0</max_ups>
		<dtol>0.001</dtol>
		<etol>0.01</etol>
		<rtol>0</rtol>
		<lstol>0.9</lstol>
		<time_stepper>
			<dtmin>0.01</dtmin>
			<dtmax>0.1</dtmax>
			<max_retries>5</max_retries>
			<opt_iter>10</opt_iter>
		</time_stepper>
		<analysis type="static"/>
	</Control>
	<Globals>
		<Constants>
			<T>293</T>
			<R>0.008314</R>
			<Fc>0.0965</Fc>
		</Constants>
	</Globals>
	<Material>
		<material id="1" name="mat1" type="Mooney-Rivlin">
				<density>1</density>
				<c1>1</c1>
				<c2>0</c2>
				<k>1.33333</k>
		</material>
		<material id="2" name="mat1" type="Mooney-Rivlin">
				<density>1</density>
				<c1>100</c1>
				<c2>0</c2>
				<k>1.33333</k>
		</material>
		<material id="3" name="mat1" type="Mooney-Rivlin">
				<density>1</density>
				<c1>100</c1>
				<c2>0</c2>
				<k>1.33333</k>
		</material>
		<material id="4" name="mat1" type="Mooney-Rivlin">
				<density>1</density>
				<c1>100</c1>
				<c2>0</c2>
				<k>1.33333</k>
		</material>
	</Material>
	<Geometry>
		<Nodes>
			<node id="1"> -5.0000000e-01, -5.0000000e-01,  0.0000000e+00</node>
			<node id="2"> -5.0000000e-01, -5.0000000e-01,  1.0000000e-01</node>
			<node id="3"> -5.0000000e-01, -5.0000000e-01,  2.0000000e-01</node>
			<node id="4"> -5.0000000e-01, -5.0000000e-01,  3.0000000e-01</node>
			<node id="5"> -5.0000000e-01, -5.0000000e-01,  4.0000000e-01</node>
			<node id="6"> -5.0000000e-01, -5.0000000e-01,  5.0000000e-01</node>
			<node id="7"> -5.0000000e-01, -4.0000000e-01,  0.0000000e+00</node>
			<node id="8"> -5.0000000e-01, -4.0000000e-01,  1.0000000e-01</node>
			<node id="9"> -5.0000000e-01, -4.0000000e-01,  2.0000000e-01</node>
			<node id="10"> -5.0000000e-01, -4.0000000e-01,  3.0000000e-01</node>
			<node id="11"> -5.0000000e-01, -4.0000000e-01,  4.0000000e-01</node>
			<node id="12"> -5.0000000e-01, -4.0000000e-01,  5.0000000e-01</node>
			<node id="13"> -5.0000000e-01, -3.0000000e-01,  0.0000000e+00</node>
			<node id="14"> -5.0000000e-01, -3.0000000e-01,  1.0000000e-01</node>
			<node id="15"> -5.0000000e-01, -3.0000000e-01,  2.0000000e-01</node>
			<node id="16"> -5.0000000e-01, -3.0000000e-01,  3.0000000e-01</node>
			<node id="17"> -5.0000000e-01, -3.0000000e-01,  4.0000000e-01</node>
			<node id="18"> -5.0000000e-01, -3.0000000e-01,  5.0000000e-01</node>
			<node id="19"> -5.0000000e-01, -2.0000000e-01,  0.0000000e+00</node>
			<node id="20"> -5.0000000e-01, -2.0000000e-01,  1.0000000e-01</node>
<!-- ... 922 like lines cut -->
</Nodes>
		<Elements type="hex8" mat="1" elset="Part3">
			<elem id="1">     1,    67,    73,     7,     2,    68,    74,     8</elem>
			<elem id="2">     2,    68,    74,     8,     3,    69,    75,     9</elem>
			<elem id="3">     3,    69,    75,     9,     4,    70,    76,    10</elem>
			<elem id="4">     4,    70,    76,    10,     5,    71,    77,    11</elem>
			<elem id="5">     5,    71,    77,    11,     6,    72,    78,    12</elem>
			<elem id="6">     7,    73,    79,    13,     8,    74,    80,    14</elem>
			<elem id="7">     8,    74,    80,    14,     9,    75,    81,    15</elem>
			<elem id="8">     9,    75,    81,    15,    10,    76,    82,    16</elem>
			<elem id="9">    10,    76,    82,    16,    11,    77,    83,    17</elem>
			<elem id="10">    11,    77,    83,    17,    12,    78,    84,    18</elem>
			<elem id="11">    13,    79,    85,    19,    14,    80,    86,    20</elem>
			<elem id="12">    14,    80,    86,    20,    15,    81,    87,    21</elem>
			<elem id="13">    15,    81,    87,    21,    16,    82,    88,    22</elem>
			<elem id="14">    16,    82,    88,    22,    17,    83,    89,    23</elem>
			<elem id="15">    17,    83,    89,    23,    18,    84,    90,    24</elem>
			<elem id="16">    19,    85,    91,    25,    20,    86,    92,    26</elem>
			<elem id="17">    20,    86,    92,    26,    21,    87,    93,    27</elem>
			<elem id="18">    21,    87,    93,    27,    22,    88,    94,    28</elem>
			<elem id="19">    22,    88,    94,    28,    23,    89,    95,    29</elem>
			<elem id="20">    23,    89,    95,    29,    24,    90,    96,    30</elem>
<!-- ... 480 like lines cut -->
		</Elements>
		<Elements type="quad4" mat="2" elset="Part4">
			<elem id="501">     6,    72,    78,    12</elem>
			<elem id="502">    12,    78,    84,    18</elem>
			<elem id="503">    18,    84,    90,    24</elem>
			<elem id="504">    24,    90,    96,    30</elem>
			<elem id="505">    30,    96,   102,    36</elem>
			<elem id="506">    36,   102,   108,    42</elem>
			<elem id="507">    42,   108,   114,    48</elem>
			<elem id="508">    48,   114,   120,    54</elem>
			<elem id="509">    54,   120,   126,    60</elem>
			<elem id="510">    60,   126,   132,    66</elem>
			<elem id="511">    72,   138,   144,    78</elem>
			<elem id="512">    78,   144,   150,    84</elem>
			<elem id="513">    84,   150,   156,    90</elem>
			<elem id="514">    90,   156,   162,    96</elem>
			<elem id="515">    96,   162,   168,   102</elem>
			<elem id="516">   102,   168,   174,   108</elem>
			<elem id="517">   108,   174,   180,   114</elem>
			<elem id="518">   114,   180,   186,   120</elem>
			<elem id="519">   120,   186,   192,   126</elem>
			<elem id="520">   126,   192,   198,   132</elem>
<!-- ... 80 like lines cut -->
		</Elements>
		<Elements type="hex8" mat="4" elset="Part7">
			<elem id="601">   727,   763,   769,   733,   728,   764,   770,   734</elem>
			<elem id="602">   728,   764,   770,   734,   729,   765,   771,   735</elem>
			<elem id="603">   729,   765,   771,   735,   730,   766,   772,   736</elem>
			<elem id="604">   730,   766,   772,   736,   731,   767,   773,   737</elem>
			<elem id="605">   731,   767,   773,   737,   732,   768,   774,   738</elem>
			<elem id="606">   733,   769,   775,   739,   734,   770,   776,   740</elem>
			<elem id="607">   734,   770,   776,   740,   735,   771,   777,   741</elem>
			<elem id="608">   735,   771,   777,   741,   736,   772,   778,   742</elem>
			<elem id="609">   736,   772,   778,   742,   737,   773,   779,   743</elem>
			<elem id="610">   737,   773,   779,   743,   738,   774,   780,   744</elem>
			<elem id="611">   739,   775,   781,   745,   740,   776,   782,   746</elem>
			<elem id="612">   740,   776,   782,   746,   741,   777,   783,   747</elem>
			<elem id="613">   741,   777,   783,   747,   742,   778,   784,   748</elem>
			<elem id="614">   742,   778,   784,   748,   743,   779,   785,   749</elem>
			<elem id="615">   743,   779,   785,   749,   744,   780,   786,   750</elem>
			<elem id="616">   745,   781,   787,   751,   746,   782,   788,   752</elem>
			<elem id="617">   746,   782,   788,   752,   747,   783,   789,   753</elem>
			<elem id="618">   747,   783,   789,   753,   748,   784,   790,   754</elem>
			<elem id="619">   748,   784,   790,   754,   749,   785,   791,   755</elem>
			<elem id="620">   749,   785,   791,   755,   750,   786,   792,   756</elem>
<!-- ... 105 like lines cut -->
		</Elements>
		<Elements type="quad4" mat="3" elset="Part8">
			<elem id="726">   751,   757,   793,   787</elem>
			<elem id="727">   745,   751,   787,   781</elem>
			<elem id="728">   739,   745,   781,   775</elem>
			<elem id="729">   733,   739,   775,   769</elem>
			<elem id="730">   727,   733,   769,   763</elem>
			<elem id="731">   787,   793,   829,   823</elem>
			<elem id="732">   781,   787,   823,   817</elem>
			<elem id="733">   775,   781,   817,   811</elem>
			<elem id="734">   769,   775,   811,   805</elem>
			<elem id="735">   763,   769,   805,   799</elem>
			<elem id="736">   823,   829,   865,   859</elem>
			<elem id="737">   817,   823,   859,   853</elem>
			<elem id="738">   811,   817,   853,   847</elem>
			<elem id="739">   805,   811,   847,   841</elem>
			<elem id="740">   799,   805,   841,   835</elem>
			<elem id="741">   859,   865,   901,   895</elem>
			<elem id="742">   853,   859,   895,   889</elem>
			<elem id="743">   847,   853,   889,   883</elem>
			<elem id="744">   841,   847,   883,   877</elem>
			<elem id="745">   835,   841,   877,   871</elem>
<!-- ... 5 like lines cut -->
		</Elements>
		<ElementData>
			<element id="501">
				<thickness>0.01,0.01,0.01,0.01</thickness>
			</element>
			<element id="502">
				<thickness>0.01,0.01,0.01,0.01</thickness>
			</element>
			<element id="503">
				<thickness>0.01,0.01,0.01,0.01</thickness>
			</element>
			<element id="504">
				<thickness>0.01,0.01,0.01,0.01</thickness>
			</element>
			<element id="505">
				<thickness>0.01,0.01,0.01,0.01</thickness>
			</element>
			<element id="506">
				<thickness>0.01,0.01,0.01,0.01</thickness>
			</element>
			<element id="507">
				<thickness>0.01,0.01,0.01,0.01</thickness>
			</element>
			<element id="508">
				<thickness>0.01,0.01,0.01,0.01</thickness>
			</element>
			<element id="509">
				<thickness>0.01,0.01,0.01,0.01</thickness>
			</element>
			<element id="510">
				<thickness>0.01,0.01,0.01,0.01</thickness>
			</element>
			<element id="511">
				<thickness>0.01,0.01,0.01,0.01</thickness>
			</element>
			<element id="512">
				<thickness>0.01,0.01,0.01,0.01</thickness>
			</element>
			<element id="513">
				<thickness>0.01,0.01,0.01,0.01</thickness>
			</element>
			<element id="514">
				<thickness>0.01,0.01,0.01,0.01</thickness>
			</element>
			<element id="515">
				<thickness>0.01,0.01,0.01,0.01</thickness>
			</element>
			<element id="516">
				<thickness>0.01,0.01,0.01,0.01</thickness>
			</element>
			<element id="517">
				<thickness>0.01,0.01,0.01,0.01</thickness>
			</element>
			<element id="518">
				<thickness>0.01,0.01,0.01,0.01</thickness>
			</element>
			<element id="519">
				<thickness>0.01,0.01,0.01,0.01</thickness>
			</element>
			<element id="520">
				<thickness>0.01,0.01,0.01,0.01</thickness>
			</element>
			<element id="521">
				<thickness>0.01,0.01,0.01,0.01</thickness>
			</element>
			<element id="522">
				<thickness>0.01,0.01,0.01,0.01</thickness>
			</element>
			<element id="523">
				<thickness>0.01,0.01,0.01,0.01</thickness>
			</element>
			<element id="524">
				<thickness>0.01,0.01,0.01,0.01</thickness>
			</element>
			<element id="525">
				<thickness>0.01,0.01,0.01,0.01</thickness>
			</element>
			<element id="526">
				<thickness>0.01,0.01,0.01,0.01</thickness>
			</element>
			<element id="527">
				<thickness>0.01,0.01,0.01,0.01</thickness>
			</element>
			<element id="528">
				<thickness>0.01,0.01,0.01,0.01</thickness>
			</element>
			<element id="529">
				<thickness>0.01,0.01,0.01,0.01</thickness>
			</element>
			<element id="530">
				<thickness>0.01,0.01,0.01,0.01</thickness>
			</element>
			<element id="531">
				<thickness>0.01,0.01,0.01,0.01</thickness>
			</element>
			<element id="532">
				<thickness>0.01,0.01,0.01,0.01</thickness>
			</element>
			<element id="533">
				<thickness>0.01,0.01,0.01,0.01</thickness>
			</element>
			<element id="534">
				<thickness>0.01,0.01,0.01,0.01</thickness>
			</element>
			<element id="535">
				<thickness>0.01,0.01,0.01,0.01</thickness>
			</element>
			<element id="536">
				<thickness>0.01,0.01,0.01,0.01</thickness>
			</element>
			<element id="537">
				<thickness>0.01,0.01,0.01,0.01</thickness>
			</element>
			<element id="538">
				<thickness>0.01,0.01,0.01,0.01</thickness>
			</element>
			<element id="539">
				<thickness>0.01,0.01,0.01,0.01</thickness>
			</element>
			<element id="540">
				<thickness>0.01,0.01,0.01,0.01</thickness>
			</element>
			<element id="541">
				<thickness>0.01,0.01,0.01,0.01</thickness>
			</element>
			<element id="542">
				<thickness>0.01,0.01,0.01,0.01</thickness>
			</element>
			<element id="543">
				<thickness>0.01,0.01,0.01,0.01</thickness>
			</element>
			<element id="544">
				<thickness>0.01,0.01,0.01,0.01</thickness>
			</element>
			<element id="545">
				<thickness>0.01,0.01,0.01,0.01</thickness>
			</element>
			<element id="546">
				<thickness>0.01,0.01,0.01,0.01</thickness>
			</element>
			<element id="547">
				<thickness>0.01,0.01,0.01,0.01</thickness>
			</element>
			<element id="548">
				<thickness>0.01,0.01,0.01,0.01</thickness>
			</element>
			<element id="549">
				<thickness>0.01,0.01,0.01,0.01</thickness>
			</element>
			<element id="550">
				<thickness>0.01,0.01,0.01,0.01</thickness>
			</element>
			<element id="551">
				<thickness>0.01,0.01,0.01,0.01</thickness>
			</element>
			<element id="552">
				<thickness>0.01,0.01,0.01,0.01</thickness>
			</element>
			<element id="553">
				<thickness>0.01,0.01,0.01,0.01</thickness>
			</element>
			<element id="554">
				<thickness>0.01,0.01,0.01,0.01</thickness>
			</element>
			<element id="555">
				<thickness>0.01,0.01,0.01,0.01</thickness>
			</element>
			<element id="556">
				<thickness>0.01,0.01,0.01,0.01</thickness>
			</element>
			<element id="557">
				<thickness>0.01,0.01,0.01,0.01</thickness>
			</element>
			<element id="558">
				<thickness>0.01,0.01,0.01,0.01</thickness>
			</element>
			<element id="559">
				<thickness>0.01,0.01,0.01,0.01</thickness>
			</element>
			<element id="560">
				<thickness>0.01,0.01,0.01,0.01</thickness>
			</element>
			<element id="561">
				<thickness>0.01,0.01,0.01,0.01</thickness>
			</element>
			<element id="562">
				<thickness>0.01,0.01,0.01,0.01</thickness>
			</element>
			<element id="563">
				<thickness>0.01,0.01,0.01,0.01</thickness>
			</element>
			<element id="564">
				<thickness>0.01,0.01,0.01,0.01</thickness>
			</element>
			<element id="565">
				<thickness>0.01,0.01,0.01,0.01</thickness>
			</element>
			<element id="566">
				<thickness>0.01,0.01,0.01,0.01</thickness>
			</element>
			<element id="567">
				<thickness>0.01,0.01,0.01,0.01</thickness>
			</element>
			<element id="568">
				<thickness>0.01,0.01,0.01,0.01</thickness>
			</element>
			<element id="569">
				<thickness>0.01,0.01,0.01,0.01</thickness>
			</element>
			<element id="570">
				<thickness>0.01,0.01,0.01,0.01</thickness>
			</element>
			<element id="571">
				<thickness>0.01,0.01,0.01,0.01</thickness>
			</element>
			<element id="572">
				<thickness>0.01,0.01,0.01,0.01</thickness>
			</element>
			<element id="573">
				<thickness>0.01,0.01,0.01,0.01</thickness>
			</element>
			<element id="574">
				<thickness>0.01,0.01,0.01,0.01</thickness>
			</element>
			<element id="575">
				<thickness>0.01,0.01,0.01,0.01</thickness>
			</element>
			<element id="576">
				<thickness>0.01,0.01,0.01,0.01</thickness>
			</element>
			<element id="577">
				<thickness>0.01,0.01,0.01,0.01</thickness>
			</element>
			<element id="578">
				<thickness>0.01,0.01,0.01,0.01</thickness>
			</element>
			<element id="579">
				<thickness>0.01,0.01,0.01,0.01</thickness>
			</element>
			<element id="580">
				<thickness>0.01,0.01,0.01,0.01</thickness>
			</element>
			<element id="581">
				<thickness>0.01,0.01,0.01,0.01</thickness>
			</element>
			<element id="582">
				<thickness>0.01,0.01,0.01,0.01</thickness>
			</element>
			<element id="583">
				<thickness>0.01,0.01,0.01,0.01</thickness>
			</element>
			<element id="584">
				<thickness>0.01,0.01,0.01,0.01</thickness>
			</element>
			<element id="585">
				<thickness>0.01,0.01,0.01,0.01</thickness>
			</element>
			<element id="586">
				<thickness>0.01,0.01,0.01,0.01</thickness>
			</element>
			<element id="587">
				<thickness>0.01,0.01,0.01,0.01</thickness>
			</element>
			<element id="588">
				<thickness>0.01,0.01,0.01,0.01</thickness>
			</element>
			<element id="589">
				<thickness>0.01,0.01,0.01,0.01</thickness>
			</element>
			<element id="590">
				<thickness>0.01,0.01,0.01,0.01</thickness>
			</element>
			<element id="591">
				<thickness>0.01,0.01,0.01,0.01</thickness>
			</element>
			<element id="592">
				<thickness>0.01,0.01,0.01,0.01</thickness>
			</element>
			<element id="593">
				<thickness>0.01,0.01,0.01,0.01</thickness>
			</element>
			<element id="594">
				<thickness>0.01,0.01,0.01,0.01</thickness>
			</element>
			<element id="595">
				<thickness>0.01,0.01,0.01,0.01</thickness>
			</element>
			<element id="596">
				<thickness>0.01,0.01,0.01,0.01</thickness>
			</element>
			<element id="597">
				<thickness>0.01,0.01,0.01,0.01</thickness>
			</element>
			<element id="598">
				<thickness>0.01,0.01,0.01,0.01</thickness>
			</element>
			<element id="599">
				<thickness>0.01,0.01,0.01,0.01</thickness>
			</element>
			<element id="600">
				<thickness>0.01,0.01,0.01,0.01</thickness>
			</element>
			<element id="726">
				<thickness>0.01,0.01,0.01,0.01</thickness>
			</element>
			<element id="727">
				<thickness>0.01,0.01,0.01,0.01</thickness>
			</element>
			<element id="728">
				<thickness>0.01,0.01,0.01,0.01</thickness>
			</element>
			<element id="729">
				<thickness>0.01,0.01,0.01,0.01</thickness>
			</element>
			<element id="730">
				<thickness>0.01,0.01,0.01,0.01</thickness>
			</element>
			<element id="731">
				<thickness>0.01,0.01,0.01,0.01</thickness>
			</element>
			<element id="732">
				<thickness>0.01,0.01,0.01,0.01</thickness>
			</element>
			<element id="733">
				<thickness>0.01,0.01,0.01,0.01</thickness>
			</element>
			<element id="734">
				<thickness>0.01,0.01,0.01,0.01</thickness>
			</element>
			<element id="735">
				<thickness>0.01,0.01,0.01,0.01</thickness>
			</element>
			<element id="736">
				<thickness>0.01,0.01,0.01,0.01</thickness>
			</element>
			<element id="737">
				<thickness>0.01,0.01,0.01,0.01</thickness>
			</element>
			<element id="738">
				<thickness>0.01,0.01,0.01,0.01</thickness>
			</element>
			<element id="739">
				<thickness>0.01,0.01,0.01,0.01</thickness>
			</element>
			<element id="740">
				<thickness>0.01,0.01,0.01,0.01</thickness>
			</element>
			<element id="741">
				<thickness>0.01,0.01,0.01,0.01</thickness>
			</element>
			<element id="742">
				<thickness>0.01,0.01,0.01,0.01</thickness>
			</element>
			<element id="743">
				<thickness>0.01,0.01,0.01,0.01</thickness>
			</element>
			<element id="744">
				<thickness>0.01,0.01,0.01,0.01</thickness>
			</element>
			<element id="745">
				<thickness>0.01,0.01,0.01,0.01</thickness>
			</element>
			<element id="746">
				<thickness>0.01,0.01,0.01,0.01</thickness>
			</element>
			<element id="747">
				<thickness>0.01,0.01,0.01,0.01</thickness>
			</element>
			<element id="748">
				<thickness>0.01,0.01,0.01,0.01</thickness>
			</element>
			<element id="749">
				<thickness>0.01,0.01,0.01,0.01</thickness>
			</element>
			<element id="750">
				<thickness>0.01,0.01,0.01,0.01</thickness>
			</element>
		</ElementData>
		<NodeSet name="box1-z">
			<node id="1"/>
			<node id="7"/>
			<node id="13"/>
			<node id="19"/>
			<node id="25"/>
			<node id="31"/>
			<node id="37"/>
			<node id="43"/>
			<node id="49"/>
			<node id="55"/>
			<node id="61"/>
			<node id="67"/>
			<node id="73"/>
			<node id="79"/>
			<node id="85"/>
			<node id="91"/>
			<node id="97"/>
			<node id="103"/>
			<node id="109"/>
			<node id="115"/>
<!-- ... 101 like lines cut -->
		</NodeSet>
		<NodeSet name="box1z">
			<node id="6"/>
			<node id="12"/>
			<node id="18"/>
			<node id="24"/>
			<node id="30"/>
			<node id="36"/>
			<node id="42"/>
			<node id="48"/>
			<node id="54"/>
			<node id="60"/>
			<node id="66"/>
			<node id="72"/>
			<node id="78"/>
			<node id="84"/>
			<node id="90"/>
			<node id="96"/>
			<node id="102"/>
			<node id="108"/>
			<node id="114"/>
			<node id="120"/>
<!-- ... 101 like lines cut -->
		</NodeSet>
		<NodeSet name="box2-z">
			<node id="727"/>
			<node id="733"/>
			<node id="739"/>
			<node id="745"/>
			<node id="751"/>
			<node id="757"/>
			<node id="763"/>
			<node id="769"/>
			<node id="775"/>
			<node id="781"/>
			<node id="787"/>
			<node id="793"/>
			<node id="799"/>
			<node id="805"/>
			<node id="811"/>
			<node id="817"/>
			<node id="823"/>
			<node id="829"/>
			<node id="835"/>
			<node id="841"/>
<!-- ... 16 like lines cut -->
		</NodeSet>
		<NodeSet name="box2z">
			<node id="732"/>
			<node id="738"/>
			<node id="744"/>
			<node id="750"/>
			<node id="756"/>
			<node id="762"/>
			<node id="768"/>
			<node id="774"/>
			<node id="780"/>
			<node id="786"/>
			<node id="792"/>
			<node id="798"/>
			<node id="804"/>
			<node id="810"/>
			<node id="816"/>
			<node id="822"/>
			<node id="828"/>
			<node id="834"/>
			<node id="840"/>
			<node id="846"/>
<!-- ... 16 like lines cut -->
		</NodeSet>
		<NodeSet name="box2-x">
			<node id="727"/>
			<node id="728"/>
			<node id="729"/>
			<node id="730"/>
			<node id="731"/>
			<node id="732"/>
			<node id="733"/>
			<node id="734"/>
			<node id="735"/>
			<node id="736"/>
			<node id="737"/>
			<node id="738"/>
			<node id="739"/>
			<node id="740"/>
			<node id="741"/>
			<node id="742"/>
			<node id="743"/>
			<node id="744"/>
			<node id="745"/>
			<node id="746"/>
<!-- ... 16 like lines cut -->
		</NodeSet>
		<NodeSet name="box2x">
			<node id="907"/>
			<node id="908"/>
			<node id="909"/>
			<node id="910"/>
			<node id="911"/>
			<node id="912"/>
			<node id="913"/>
			<node id="914"/>
			<node id="915"/>
			<node id="916"/>
			<node id="917"/>
			<node id="918"/>
			<node id="919"/>
			<node id="920"/>
			<node id="921"/>
			<node id="922"/>
			<node id="923"/>
			<node id="924"/>
			<node id="925"/>
			<node id="926"/>
<!-- ... 16 like lines cut -->
		</NodeSet>
		<NodeSet name="box2-y">
			<node id="727"/>
			<node id="728"/>
			<node id="729"/>
			<node id="730"/>
			<node id="731"/>
			<node id="732"/>
			<node id="763"/>
			<node id="764"/>
			<node id="765"/>
			<node id="766"/>
			<node id="767"/>
			<node id="768"/>
			<node id="799"/>
			<node id="800"/>
			<node id="801"/>
			<node id="802"/>
			<node id="803"/>
			<node id="804"/>
			<node id="835"/>
			<node id="836"/>
<!-- ... 16 like lines cut -->
		</NodeSet>
		<NodeSet name="box2y">
			<node id="757"/>
			<node id="758"/>
			<node id="759"/>
			<node id="760"/>
			<node id="761"/>
			<node id="762"/>
			<node id="793"/>
			<node id="794"/>
			<node id="795"/>
			<node id="796"/>
			<node id="797"/>
			<node id="798"/>
			<node id="829"/>
			<node id="830"/>
			<node id="831"/>
			<node id="832"/>
			<node id="833"/>
			<node id="834"/>
			<node id="865"/>
			<node id="866"/>
<!-- ... 16 like lines cut -->
		</NodeSet>
		<Surface name="box1z">
				<quad4 id="1">     6,    72,    78,    12</quad4>
				<quad4 id="2">    12,    78,    84,    18</quad4>
				<quad4 id="3">    18,    84,    90,    24</quad4>
				<quad4 id="4">    24,    90,    96,    30</quad4>
				<quad4 id="5">    30,    96,   102,    36</quad4>
				<quad4 id="6">    36,   102,   108,    42</quad4>
				<quad4 id="7">    42,   108,   114,    48</quad4>
				<quad4 id="8">    48,   114,   120,    54</quad4>
				<quad4 id="9">    54,   120,   126,    60</quad4>
				<quad4 id="10">    60,   126,   132,    66</quad4>
				<quad4 id="11">    72,   138,   144,    78</quad4>
				<quad4 id="12">    78,   144,   150,    84</quad4>
				<quad4 id="13">    84,   150,   156,    90</quad4>
				<quad4 id="14">    90,   156,   162,    96</quad4>
				<quad4 id="15">    96,   162,   168,   102</quad4>
				<quad4 id="16">   102,   168,   174,   108</quad4>
				<quad4 id="17">   108,   174,   180,   114</quad4>
				<quad4 id="18">   114,   180,   186,   120</quad4>
				<quad4 id="19">   120,   186,   192,   126</quad4>
				<quad4 id="20">   126,   192,   198,   132</quad4>
<!-- ... 80 like lines cut -->
		</Surface>
		<Surface name="box2-z">
				<quad4 id="1">   733,   769,   763,   727</quad4>
				<quad4 id="2">   739,   775,   769,   733</quad4>
				<quad4 id="3">   745,   781,   775,   739</quad4>
				<quad4 id="4">   751,   787,   781,   745</quad4>
				<quad4 id="5">   757,   793,   787,   751</quad4>
				<quad4 id="6">   769,   805,   799,   763</quad4>
				<quad4 id="7">   775,   811,   805,   769</quad4>
				<quad4 id="8">   781,   817,   811,   775</quad4>
				<quad4 id="9">   787,   823,   817,   781</quad4>
				<quad4 id="10">   793,   829,   823,   787</quad4>
				<quad4 id="11">   805,   841,   835,   799</quad4>
				<quad4 id="12">   811,   847,   841,   805</quad4>
				<quad4 id="13">   817,   853,   847,   811</quad4>
				<quad4 id="14">   823,   859,   853,   817</quad4>
				<quad4 id="15">   829,   865,   859,   823</quad4>
				<quad4 id="16">   841,   877,   871,   835</quad4>
				<quad4 id="17">   847,   883,   877,   841</quad4>
				<quad4 id="18">   853,   889,   883,   847</quad4>
				<quad4 id="19">   859,   895,   889,   853</quad4>
				<quad4 id="20">   865,   901,   895,   859</quad4>
<!-- ... 5 like lines cut -->
		</Surface>
	</Geometry>
	<Boundary>
		<fix bc="xyz" set="box1-z"/>
		<fix bc="xy" set="box1z"/>
		<fix bc="y" set="box2-z"/>
		<fix bc="y" set="box2z"/>
		<prescribe bc="x" lc="1" set="box2z">1</prescribe>
		<prescribe bc="z" lc="2" set="box2z">1</prescribe>
	</Boundary>
	<Contact>
		<contact type="sliding-tension-compression">
			<laugon>0</laugon>
			<tolerance>0.01</tolerance>
			<penalty>10</penalty>
			<two_pass>1</two_pass>
			<auto_penalty>1</auto_penalty>
         			<symmetric_stiffness>0</symmetric_stiffness>
			<search_radius>1</search_radius>
         			<tension>0</tension>
			<search_tol>0.01</search_tol>
			<minaug>0</minaug>
			<maxaug>10</maxaug>
			<gaptol>0</gaptol>
			<seg_up>0</seg_up>
			<surface type="master" set="box1z"/>
			<surface type="slave" set="box2-z"/>
		</contact>
	</Contact>
	<LoadData>
		<loadcurve id="1" type="linear">
			<point>0,0</point>
			<point>1,0</point>
			<point>2,-0.8</point>
		</loadcurve>
		<loadcurve id="2" type="linear">
			<point>0,0</point>
			<point>0.1,-0.5</point>
			<point>1,-0.64</point>
			<point>2,-0.64</point>
		</loadcurve>
	</LoadData>
	<Output>
		<plotfile type="febio">
			<var type="displacement"/>
			<var type="stress"/>
			<var type="relative volume"/>
			<var type="shell director"/>
			<var type="shell strain"/>
			<var type="contact gap"/>
			<var type="contact pressure"/>
			<var type="relative volume"/>
		</plotfile>
		<logfile>
			<node_data data="z">4</node_data>
		</logfile>
	</Output>
</febio_spec>
