<?xml version="1.0" encoding="ISO-8859-1"?>
<!--
Problem Description:
	Quarter disk with shell is compressed by a rigid wall.
	rigid_wall contact is prescribed with x displacement of 0.5 at t=0.5.
	Normal of rigid wall needs be against normal of shell.
Main Features:
	quad4 shells
	rigid_wall contact
Secondary Features:
Materials:
	neo-Hookean
Degrees of Freedom: 258
Results
	Steps Completed: 11
	Equilibrium Iterations: 74
	Right Hand Evaluations: 157
	Siffness Reformations: 74
	Other:
		The maximum effective stress is 0.739 units at time t=0.5.
Comments:
-->
<febio_spec version="2.0">
	<Module type="solid"/>
	<Control>
		<time_steps>10</time_steps>
		<step_size>0.1</step_size>
		<max_refs>15</max_refs>
		<max_ups>0</max_ups>
		<dtol>0.001</dtol>
		<etol>0.01</etol>
		<rtol>0</rtol>
		<lstol>0.9</lstol>
		<time_stepper>
			<dtmin>0.01</dtmin>
			<dtmax>0.1</dtmax>
			<max_retries>5</max_retries>
			<opt_iter>10</opt_iter>
		</time_stepper>
		<analysis type="static"/>
	</Control>
	<Globals>
		<Constants>
			<T>293</T>
			<R>0.008314</R>
			<Fc>0.0965</Fc>
		</Constants>
	</Globals>
	<Material>
		<material id="1" name="mat1" type="neo-Hookean">
				<density>1</density>
				<E>1</E>
				<v>0.4</v>
		</material>
		<material id="2" name="mat1" type="neo-Hookean">
				<density>1</density>
				<E>1</E>
				<v>0.4</v>
		</material>
	</Material>
	<Geometry>
		<Nodes>
			<node id="1"> -1.0000000e+00,  5.5511151e-17,  0.0000000e+00</node>
			<node id="2"> -8.8888889e-01,  5.5511151e-17,  0.0000000e+00</node>
			<node id="3"> -8.9267491e-01,  2.8757671e-02,  0.0000000e+00</node>
			<node id="4"> -9.0377495e-01,  5.5555555e-02,  0.0000000e+00</node>
			<node id="5"> -9.2143258e-01,  7.8567419e-02,  0.0000000e+00</node>
			<node id="6"> -9.4444444e-01,  9.6225044e-02,  0.0000000e+00</node>
			<node id="7"> -9.7124233e-01,  1.0732509e-01,  0.0000000e+00</node>
			<node id="8"> -1.0000000e+00,  1.1111111e-01,  0.0000000e+00</node>
			<node id="9"> -7.7777778e-01,  5.5511151e-17,  0.0000000e+00</node>
			<node id="10"> -7.8534982e-01,  5.7515342e-02,  0.0000000e+00</node>
			<node id="11"> -8.0754991e-01,  1.1111111e-01,  0.0000000e+00</node>
			<node id="12"> -8.4286516e-01,  1.5713484e-01,  0.0000000e+00</node>
			<node id="13"> -8.8888889e-01,  1.9245009e-01,  0.0000000e+00</node>
			<node id="14"> -9.4248465e-01,  2.1465018e-01,  0.0000000e+00</node>
			<node id="15"> -9.9999999e-01,  2.2222222e-01,  0.0000000e+00</node>
			<node id="16"> -6.6666667e-01,  5.5511151e-17,  0.0000000e+00</node>
			<node id="17"> -6.7802472e-01,  8.6273014e-02,  0.0000000e+00</node>
			<node id="18"> -7.1132486e-01,  1.6666666e-01,  0.0000000e+00</node>
			<node id="19"> -7.6429774e-01,  2.3570226e-01,  0.0000000e+00</node>
			<node id="20"> -8.3333333e-01,  2.8867513e-01,  0.0000000e+00</node>
<!-- ... 108 like lines cut -->
		</Nodes>
		<Elements type="penta6" mat="1" elset="Part3">
			<elem id="1">     1,     2,     3,    65,    66,    67</elem>
			<elem id="2">     1,     3,     4,    65,    67,    68</elem>
			<elem id="3">     1,     4,     5,    65,    68,    69</elem>
			<elem id="4">     1,     5,     6,    65,    69,    70</elem>
			<elem id="5">     1,     6,     7,    65,    70,    71</elem>
			<elem id="6">     1,     7,     8,    65,    71,    72</elem>
		</Elements>
		<Elements type="hex8" mat="1" elset="Part3">
			<elem id="7">     2,     9,    10,     3,    66,    73,    74,    67</elem>
			<elem id="8">     3,    10,    11,     4,    67,    74,    75,    68</elem>
			<elem id="9">     4,    11,    12,     5,    68,    75,    76,    69</elem>
			<elem id="10">     5,    12,    13,     6,    69,    76,    77,    70</elem>
			<elem id="11">     6,    13,    14,     7,    70,    77,    78,    71</elem>
			<elem id="12">     7,    14,    15,     8,    71,    78,    79,    72</elem>
			<elem id="13">     9,    16,    17,    10,    73,    80,    81,    74</elem>
			<elem id="14">    10,    17,    18,    11,    74,    81,    82,    75</elem>
			<elem id="15">    11,    18,    19,    12,    75,    82,    83,    76</elem>
			<elem id="16">    12,    19,    20,    13,    76,    83,    84,    77</elem>
			<elem id="17">    13,    20,    21,    14,    77,    84,    85,    78</elem>
			<elem id="18">    14,    21,    22,    15,    78,    85,    86,    79</elem>
			<elem id="19">    16,    23,    24,    17,    80,    87,    88,    81</elem>
			<elem id="20">    17,    24,    25,    18,    81,    88,    89,    82</elem>
			<elem id="21">    18,    25,    26,    19,    82,    89,    90,    83</elem>
			<elem id="22">    19,    26,    27,    20,    83,    90,    91,    84</elem>
			<elem id="23">    20,    27,    28,    21,    84,    91,    92,    85</elem>
			<elem id="24">    21,    28,    29,    22,    85,    92,    93,    86</elem>
			<elem id="25">    23,    30,    31,    24,    87,    94,    95,    88</elem>
			<elem id="26">    24,    31,    32,    25,    88,    95,    96,    89</elem>
<!-- ... 28 like lines cut -->
		</Elements>
		<Elements type="quad4" mat="2" elset="Part4">
			<elem id="55">    58,    59,   123,   122</elem>
			<elem id="56">    59,    60,   124,   123</elem>
			<elem id="57">    60,    61,   125,   124</elem>
			<elem id="58">    61,    62,   126,   125</elem>
			<elem id="59">    62,    63,   127,   126</elem>
			<elem id="60">    63,    64,   128,   127</elem>
		</Elements>
		<ElementData>
			<element id="55">
				<thickness>0.01,0.01,0.01,0.01</thickness>
			</element>
			<element id="56">
				<thickness>0.01,0.01,0.01,0.01</thickness>
			</element>
			<element id="57">
				<thickness>0.01,0.01,0.01,0.01</thickness>
			</element>
			<element id="58">
				<thickness>0.01,0.01,0.01,0.01</thickness>
			</element>
			<element id="59">
				<thickness>0.01,0.01,0.01,0.01</thickness>
			</element>
			<element id="60">
				<thickness>0.01,0.01,0.01,0.01</thickness>
			</element>
		</ElementData>
		<NodeSet name="-x">
			<node id="1"/>
			<node id="8"/>
			<node id="15"/>
			<node id="22"/>
			<node id="29"/>
			<node id="36"/>
			<node id="43"/>
			<node id="50"/>
			<node id="57"/>
			<node id="64"/>
			<node id="65"/>
			<node id="72"/>
			<node id="79"/>
			<node id="86"/>
			<node id="93"/>
			<node id="100"/>
			<node id="107"/>
			<node id="114"/>
			<node id="121"/>
			<node id="128"/>
		</NodeSet>
		<NodeSet name="-y">
			<node id="1"/>
			<node id="2"/>
			<node id="9"/>
			<node id="16"/>
			<node id="23"/>
			<node id="30"/>
			<node id="37"/>
			<node id="44"/>
			<node id="51"/>
			<node id="58"/>
			<node id="65"/>
			<node id="66"/>
			<node id="73"/>
			<node id="80"/>
			<node id="87"/>
			<node id="94"/>
			<node id="101"/>
			<node id="108"/>
			<node id="115"/>
			<node id="122"/>
		</NodeSet>
		<NodeSet name="-z">
			<node id="1"/>
			<node id="2"/>
			<node id="3"/>
			<node id="4"/>
			<node id="5"/>
			<node id="6"/>
			<node id="7"/>
			<node id="8"/>
			<node id="9"/>
			<node id="10"/>
			<node id="11"/>
			<node id="12"/>
			<node id="13"/>
			<node id="14"/>
			<node id="15"/>
			<node id="16"/>
			<node id="17"/>
			<node id="18"/>
			<node id="19"/>
			<node id="20"/>
<!-- ... 44 like lines cut -->
		</NodeSet>
		<NodeSet name="z">
			<node id="65"/>
			<node id="66"/>
			<node id="67"/>
			<node id="68"/>
			<node id="69"/>
			<node id="70"/>
			<node id="71"/>
			<node id="72"/>
			<node id="73"/>
			<node id="74"/>
			<node id="75"/>
			<node id="76"/>
			<node id="77"/>
			<node id="78"/>
			<node id="79"/>
			<node id="80"/>
			<node id="81"/>
			<node id="82"/>
			<node id="83"/>
			<node id="84"/>
<!-- ... 44 like lines cut -->
		</NodeSet>
		<NodeSet name="arc">
			<node id="58"/>
			<node id="59"/>
			<node id="60"/>
			<node id="61"/>
			<node id="62"/>
			<node id="63"/>
			<node id="64"/>
			<node id="122"/>
			<node id="123"/>
			<node id="124"/>
			<node id="125"/>
			<node id="126"/>
			<node id="127"/>
			<node id="128"/>
		</NodeSet>
		<Surface name="arc">
				<quad4 id="1">    58,    59,   123,   122</quad4>
				<quad4 id="2">    59,    60,   124,   123</quad4>
				<quad4 id="3">    60,    61,   125,   124</quad4>
				<quad4 id="4">    61,    62,   126,   125</quad4>
				<quad4 id="5">    62,    63,   127,   126</quad4>
				<quad4 id="6">    63,    64,   128,   127</quad4>
		</Surface>
	</Geometry>
	<Boundary>
		<fix bc="x" set="-x"/>
		<fix bc="y" set="-y"/>
		<fix bc="z" set="-z"/>
		<fix bc="z" set="z"/>
	</Boundary>
	<Contact>
		<contact type="rigid_wall">
			<laugon>0</laugon>
			<tolerance>0.01</tolerance>
			<penalty>150</penalty>
			<plane>-1,0,0,0</plane>
			<offset lc="2">1</offset>
			<surface>
				<quad4 id="1">    58,    59,   123,   122</quad4>
				<quad4 id="2">    59,    60,   124,   123</quad4>
				<quad4 id="3">    60,    61,   125,   124</quad4>
				<quad4 id="4">    61,    62,   126,   125</quad4>
				<quad4 id="5">    62,    63,   127,   126</quad4>
				<quad4 id="6">    63,    64,   128,   127</quad4>
			</surface>
		</contact>
	</Contact>
	<LoadData>
		<loadcurve id="1" type="step">
			<point>0,0</point>
			<point>0.6,0.1</point>
			<point>1,0.1</point>
		</loadcurve>
		<loadcurve id="2" type="linear">
			<point>0,0</point>
			<point>0.5,0.4</point>
			<point>1,0</point>
		</loadcurve>
	</LoadData>
	<Output>
		<plotfile type="febio">
			<var type="displacement"/>
			<var type="stress"/>
			<var type="relative volume"/>
			<var type="shell director"/>
			<var type="shell strain"/>
			<var type="contact gap"/>
			<var type="contact pressure"/>
			<var type="relative volume"/>
		</plotfile>
		<logfile>
			<node_data data="z">4</node_data>
		</logfile>
	</Output>
</febio_spec>
