<?xml version="1.0" encoding="ISO-8859-1"?>
<!--
Problem Description:
	Two blocks with shells with tied contact are pulled against each other.
	Right face of right block is prescribed x displacmenet of 0.5 at t=1.
Main Features:
	quad4 shells
	tied-biphasic contact
Secondary Features:
Materials:
	neo-Hookean
Degrees of Freedom: 396
Results
	Steps Completed: 10
	Equilibrium Iterations: 55
	Right Hand Evaluations: 65
	Siffness Reformations: 55
	Other:
		The maximum x-shell strain is 0.303 units at time t=1.
Comments:
-->
<febio_spec version="2.0">
	<Module type="solid"/>
	<Control>
		<time_steps>10</time_steps>
		<step_size>0.1</step_size>
		<max_refs>15</max_refs>
		<max_ups>0</max_ups>
		<dtol>0.001</dtol>
		<etol>0.01</etol>
		<rtol>0</rtol>
		<lstol>0.9</lstol>
		<time_stepper>
			<dtmin>0.01</dtmin>
			<dtmax>0.1</dtmax>
			<max_retries>5</max_retries>
			<opt_iter>10</opt_iter>
		</time_stepper>
		<analysis type="static"/>
	</Control>
	<Globals>
		<Constants>
			<T>293</T>
			<R>0.008314</R>
			<Fc>0.0965</Fc>
		</Constants>
	</Globals>
	<Material>
		<material id="1" name="mat1" type="neo-Hookean">
				<density>1</density>
				<E>1</E>
				<v>0.4</v>
		</material>
		<material id="2" name="mat1" type="neo-Hookean">
				<density>1</density>
				<E>1</E>
				<v>0.4</v>
		</material>
		<material id="3" name="mat1" type="neo-Hookean">
				<density>1</density>
				<E>1</E>
				<v>0.4</v>
		</material>
		<material id="4" name="mat1" type="neo-Hookean">
				<density>1</density>
				<E>1</E>
				<v>0.4</v>
		</material>
	</Material>
	<Geometry>
		<Nodes>
			<node id="1"> -5.0000000e-01, -5.0000000e-01,  0.0000000e+00</node>
			<node id="2"> -5.0000000e-01, -5.0000000e-01,  5.0000000e-01</node>
			<node id="3"> -5.0000000e-01, -5.0000000e-01,  1.0000000e+00</node>
			<node id="4"> -5.0000000e-01,  0.0000000e+00,  0.0000000e+00</node>
			<node id="5"> -5.0000000e-01,  0.0000000e+00,  5.0000000e-01</node>
			<node id="6"> -5.0000000e-01,  0.0000000e+00,  1.0000000e+00</node>
			<node id="7"> -5.0000000e-01,  5.0000000e-01,  0.0000000e+00</node>
			<node id="8"> -5.0000000e-01,  5.0000000e-01,  5.0000000e-01</node>
			<node id="9"> -5.0000000e-01,  5.0000000e-01,  1.0000000e+00</node>
			<node id="10">  0.0000000e+00, -5.0000000e-01,  0.0000000e+00</node>
			<node id="11">  0.0000000e+00, -5.0000000e-01,  5.0000000e-01</node>
			<node id="12">  0.0000000e+00, -5.0000000e-01,  1.0000000e+00</node>
			<node id="13">  0.0000000e+00,  0.0000000e+00,  0.0000000e+00</node>
			<node id="14">  0.0000000e+00,  0.0000000e+00,  5.0000000e-01</node>
			<node id="15">  0.0000000e+00,  0.0000000e+00,  1.0000000e+00</node>
			<node id="16">  0.0000000e+00,  5.0000000e-01,  0.0000000e+00</node>
			<node id="17">  0.0000000e+00,  5.0000000e-01,  5.0000000e-01</node>
			<node id="18">  0.0000000e+00,  5.0000000e-01,  1.0000000e+00</node>
			<node id="19">  5.0000000e-01, -5.0000000e-01,  0.0000000e+00</node>
			<node id="20">  5.0000000e-01, -5.0000000e-01,  5.0000000e-01</node>
<!-- ... 71 like lines cut -->
		</Nodes>
		<Elements type="hex8" mat="1" elset="Part3">
			<elem id="1">     1,    10,    13,     4,     2,    11,    14,     5</elem>
			<elem id="2">     2,    11,    14,     5,     3,    12,    15,     6</elem>
			<elem id="3">     4,    13,    16,     7,     5,    14,    17,     8</elem>
			<elem id="4">     5,    14,    17,     8,     6,    15,    18,     9</elem>
			<elem id="5">    10,    19,    22,    13,    11,    20,    23,    14</elem>
			<elem id="6">    11,    20,    23,    14,    12,    21,    24,    15</elem>
			<elem id="7">    13,    22,    25,    16,    14,    23,    26,    17</elem>
			<elem id="8">    14,    23,    26,    17,    15,    24,    27,    18</elem>
		</Elements>
		<Elements type="quad4" mat="2" elset="Part4">
			<elem id="9">    19,    22,    23,    20</elem>
			<elem id="10">    20,    23,    24,    21</elem>
			<elem id="11">    22,    25,    26,    23</elem>
			<elem id="12">    23,    26,    27,    24</elem>
		</Elements>
		<Elements type="hex8" mat="4" elset="Part7">
			<elem id="13">    28,    44,    48,    32,    29,    45,    49,    33</elem>
			<elem id="14">    29,    45,    49,    33,    30,    46,    50,    34</elem>
			<elem id="15">    30,    46,    50,    34,    31,    47,    51,    35</elem>
			<elem id="16">    32,    48,    52,    36,    33,    49,    53,    37</elem>
			<elem id="17">    33,    49,    53,    37,    34,    50,    54,    38</elem>
			<elem id="18">    34,    50,    54,    38,    35,    51,    55,    39</elem>
			<elem id="19">    36,    52,    56,    40,    37,    53,    57,    41</elem>
			<elem id="20">    37,    53,    57,    41,    38,    54,    58,    42</elem>
			<elem id="21">    38,    54,    58,    42,    39,    55,    59,    43</elem>
			<elem id="22">    44,    60,    64,    48,    45,    61,    65,    49</elem>
			<elem id="23">    45,    61,    65,    49,    46,    62,    66,    50</elem>
			<elem id="24">    46,    62,    66,    50,    47,    63,    67,    51</elem>
			<elem id="25">    48,    64,    68,    52,    49,    65,    69,    53</elem>
			<elem id="26">    49,    65,    69,    53,    50,    66,    70,    54</elem>
			<elem id="27">    50,    66,    70,    54,    51,    67,    71,    55</elem>
			<elem id="28">    52,    68,    72,    56,    53,    69,    73,    57</elem>
			<elem id="29">    53,    69,    73,    57,    54,    70,    74,    58</elem>
			<elem id="30">    54,    70,    74,    58,    55,    71,    75,    59</elem>
			<elem id="31">    60,    76,    80,    64,    61,    77,    81,    65</elem>
			<elem id="32">    61,    77,    81,    65,    62,    78,    82,    66</elem>
<!-- ... 7 like lines cut -->
		</Elements>
		<Elements type="quad4" mat="3" elset="Part8">
			<elem id="40">    40,    36,    37,    41</elem>
			<elem id="41">    41,    37,    38,    42</elem>
			<elem id="42">    42,    38,    39,    43</elem>
			<elem id="43">    36,    32,    33,    37</elem>
			<elem id="44">    37,    33,    34,    38</elem>
			<elem id="45">    38,    34,    35,    39</elem>
			<elem id="46">    32,    28,    29,    33</elem>
			<elem id="47">    33,    29,    30,    34</elem>
			<elem id="48">    34,    30,    31,    35</elem>
		</Elements>
		<ElementData>
			<element id="9">
				<thickness>0.01,0.01,0.01,0.01</thickness>
			</element>
			<element id="10">
				<thickness>0.01,0.01,0.01,0.01</thickness>
			</element>
			<element id="11">
				<thickness>0.01,0.01,0.01,0.01</thickness>
			</element>
			<element id="12">
				<thickness>0.01,0.01,0.01,0.01</thickness>
			</element>
			<element id="40">
				<thickness>0.01,0.01,0.01,0.01</thickness>
			</element>
			<element id="41">
				<thickness>0.01,0.01,0.01,0.01</thickness>
			</element>
			<element id="42">
				<thickness>0.01,0.01,0.01,0.01</thickness>
			</element>
			<element id="43">
				<thickness>0.01,0.01,0.01,0.01</thickness>
			</element>
			<element id="44">
				<thickness>0.01,0.01,0.01,0.01</thickness>
			</element>
			<element id="45">
				<thickness>0.01,0.01,0.01,0.01</thickness>
			</element>
			<element id="46">
				<thickness>0.01,0.01,0.01,0.01</thickness>
			</element>
			<element id="47">
				<thickness>0.01,0.01,0.01,0.01</thickness>
			</element>
			<element id="48">
				<thickness>0.01,0.01,0.01,0.01</thickness>
			</element>
		</ElementData>
		<NodeSet name="box1-x">
			<node id="1"/>
			<node id="2"/>
			<node id="3"/>
			<node id="4"/>
			<node id="5"/>
			<node id="6"/>
			<node id="7"/>
			<node id="8"/>
			<node id="9"/>
		</NodeSet>
		<NodeSet name="box1x">
			<node id="19"/>
			<node id="20"/>
			<node id="21"/>
			<node id="22"/>
			<node id="23"/>
			<node id="24"/>
			<node id="25"/>
			<node id="26"/>
			<node id="27"/>
		</NodeSet>
		<NodeSet name="box2-x">
			<node id="28"/>
			<node id="29"/>
			<node id="30"/>
			<node id="31"/>
			<node id="32"/>
			<node id="33"/>
			<node id="34"/>
			<node id="35"/>
			<node id="36"/>
			<node id="37"/>
			<node id="38"/>
			<node id="39"/>
			<node id="40"/>
			<node id="41"/>
			<node id="42"/>
			<node id="43"/>
		</NodeSet>
		<NodeSet name="box2x">
			<node id="76"/>
			<node id="77"/>
			<node id="78"/>
			<node id="79"/>
			<node id="80"/>
			<node id="81"/>
			<node id="82"/>
			<node id="83"/>
			<node id="84"/>
			<node id="85"/>
			<node id="86"/>
			<node id="87"/>
			<node id="88"/>
			<node id="89"/>
			<node id="90"/>
			<node id="91"/>
		</NodeSet>
		<Surface name="box1x">
				<quad4 id="1">    19,    22,    23,    20</quad4>
				<quad4 id="2">    20,    23,    24,    21</quad4>
				<quad4 id="3">    22,    25,    26,    23</quad4>
				<quad4 id="4">    23,    26,    27,    24</quad4>
		</Surface>
		<Surface name="box2-x">
				<quad4 id="1">    32,    28,    29,    33</quad4>
				<quad4 id="2">    33,    29,    30,    34</quad4>
				<quad4 id="3">    34,    30,    31,    35</quad4>
				<quad4 id="4">    36,    32,    33,    37</quad4>
				<quad4 id="5">    37,    33,    34,    38</quad4>
				<quad4 id="6">    38,    34,    35,    39</quad4>
				<quad4 id="7">    40,    36,    37,    41</quad4>
				<quad4 id="8">    41,    37,    38,    42</quad4>
				<quad4 id="9">    42,    38,    39,    43</quad4>
		</Surface>
	</Geometry>
	<Boundary>
		<fix bc="xyz" set="box1-x"/>
		<prescribe bc="x" lc="1" set="box2x">1</prescribe>
	</Boundary>
	<Contact>
		<contact type="tied-biphasic">
			<laugon>0</laugon>
			<tolerance>0.05</tolerance>
			<penalty>100</penalty>
			<two_pass>1</two_pass>
			<auto_penalty>1</auto_penalty>
         			<symmetric_stiffness>0</symmetric_stiffness>
			<minaug>0</minaug>
			<maxaug>10</maxaug>
			<gaptol>0.01</gaptol>
			<surface type="master" set="box2-x"/>
			<surface type="slave" set="box1x"/>
		</contact>
	</Contact>
	<LoadData>
		<loadcurve id="1" type="linear">
			<point>0,0</point>
			<point>1,0.5</point>
		</loadcurve>
	</LoadData>
	<Output>
		<plotfile type="febio">
			<var type="displacement"/>
			<var type="stress"/>
			<var type="relative volume"/>
			<var type="shell director"/>
			<var type="shell strain"/>
			<var type="contact gap"/>
			<var type="contact pressure"/>
			<var type="relative volume"/>
		</plotfile>
		<logfile>
			<node_data data="z">4</node_data>
		</logfile>
	</Output>
</febio_spec>
