<?xml version="1.0" encoding="ISO-8859-1"?>
<!--
Problem Description:
Shell(quad8) constrained on edges is compressed by rigid shell(quad8).
Rigid shell is prescribed z dispalcement of -2 at t=1.
Main Features:
	quad8 shells
	sliding-tension-compression contact
Secondary Features:
Materials:
	neo-Hookean
Degrees of Freedom: 10657
Results
	Steps Completed: 10
	Equilibrium Iterations: 32
	Right Hand Evaluations: 44
	Siffness Reformations: 32
	Other:
		The maximum effective stress is 0.0333 units at time t=1.
Comments:
-->
<febio_spec version="2.0">
	<Module type="solid"/>
	<Control>
		<time_steps>10</time_steps>
		<step_size>0.1</step_size>
		<max_refs>15</max_refs>
		<max_ups>0</max_ups>
		<dtol>0.001</dtol>
		<etol>0.01</etol>
		<rtol>0</rtol>
		<lstol>0.9</lstol>
		<time_stepper>
			<dtmin>0.01</dtmin>
			<dtmax>0.1</dtmax>
			<max_retries>5</max_retries>
			<opt_iter>10</opt_iter>
		</time_stepper>
		<symmetric_stiffness>0</symmetric_stiffness>
		<analysis type="static"/>
	</Control>
	<Globals>
		<Constants>
			<T>293</T>
			<R>0.008314</R>
			<Fc>0.0965</Fc>
		</Constants>
	</Globals>
	<Material>
		<material id="1" name="shell1" type="neo-Hookean">
				<density>1</density>
				<E>1</E>
				<v>0</v>
		</material>
		<material id="2" name="shell2" type="rigid body">
				<density>1</density>
		</material>
	</Material>
	<Geometry>
		<Nodes>
			<node id="1">-2.5000000e+00,-2.5000000e+00,0.0000000e+00</node>
			<node id="2">-2.5000000e+00,-2.3000000e+00,0.0000000e+00</node>
			<node id="3">-2.5000000e+00,-2.1000000e+00,0.0000000e+00</node>
			<node id="4">-2.5000000e+00,-1.9000000e+00,0.0000000e+00</node>
			<node id="5">-2.5000000e+00,-1.7000000e+00,0.0000000e+00</node>
			<node id="6">-2.5000000e+00,-1.5000000e+00,0.0000000e+00</node>
			<node id="7">-2.5000000e+00,-1.3000000e+00,0.0000000e+00</node>
			<node id="8">-2.5000000e+00,-1.1000000e+00,0.0000000e+00</node>
			<node id="9">-2.5000000e+00,-9.0000000e-01,0.0000000e+00</node>
			<node id="10">-2.5000000e+00,-7.0000000e-01,0.0000000e+00</node>
			<node id="11">-2.5000000e+00,-5.0000000e-01,0.0000000e+00</node>
			<node id="12">-2.5000000e+00,-3.0000000e-01,0.0000000e+00</node>
			<node id="13">-2.5000000e+00,-1.0000000e-01,0.0000000e+00</node>
			<node id="14">-2.5000000e+00,1.0000000e-01,0.0000000e+00</node>
			<node id="15">-2.5000000e+00,3.0000000e-01,0.0000000e+00</node>
			<node id="16">-2.5000000e+00,5.0000000e-01,0.0000000e+00</node>
			<node id="17">-2.5000000e+00,7.0000000e-01,0.0000000e+00</node>
			<node id="18">-2.5000000e+00,9.0000000e-01,0.0000000e+00</node>
			<node id="19">-2.5000000e+00,1.1000000e+00,0.0000000e+00</node>
			<node id="20">-2.5000000e+00,1.3000000e+00,0.0000000e+00</node>
<!-- ... 1964 like lines cut -->
		</Nodes>
		<Elements type="quad8" mat="1" elset="Part3">
			<elem id="1">1,27,28,2,677,728,679,678</elem>
			<elem id="2">2,28,29,3,679,730,681,680</elem>
			<elem id="3">3,29,30,4,681,732,683,682</elem>
			<elem id="4">4,30,31,5,683,734,685,684</elem>
			<elem id="5">5,31,32,6,685,736,687,686</elem>
			<elem id="6">6,32,33,7,687,738,689,688</elem>
			<elem id="7">7,33,34,8,689,740,691,690</elem>
			<elem id="8">8,34,35,9,691,742,693,692</elem>
			<elem id="9">9,35,36,10,693,744,695,694</elem>
			<elem id="10">10,36,37,11,695,746,697,696</elem>
			<elem id="11">11,37,38,12,697,748,699,698</elem>
			<elem id="12">12,38,39,13,699,750,701,700</elem>
			<elem id="13">13,39,40,14,701,752,703,702</elem>
			<elem id="14">14,40,41,15,703,754,705,704</elem>
			<elem id="15">15,41,42,16,705,756,707,706</elem>
			<elem id="16">16,42,43,17,707,758,709,708</elem>
			<elem id="17">17,43,44,18,709,760,711,710</elem>
			<elem id="18">18,44,45,19,711,762,713,712</elem>
			<elem id="19">19,45,46,20,713,764,715,714</elem>
			<elem id="20">20,46,47,21,715,766,717,716</elem>
<!-- ... 605 like lines cut -->
		</Elements>
		<Elements type="quad8" mat="2" elset="Part3">
			<elem id="626">1977,1979,1980,1978,1981,1984,1983,1982</elem>
		</Elements>
		<ElementData>
			<element id="1">
				<thickness>0.01,0.01,0.01,0.01,0.01,0.01,0.01,0.01</thickness>
			</element>
			<element id="2">
				<thickness>0.01,0.01,0.01,0.01,0.01,0.01,0.01,0.01</thickness>
			</element>
			<element id="3">
				<thickness>0.01,0.01,0.01,0.01,0.01,0.01,0.01,0.01</thickness>
			</element>
			<element id="4">
				<thickness>0.01,0.01,0.01,0.01,0.01,0.01,0.01,0.01</thickness>
			</element>
			<element id="5">
				<thickness>0.01,0.01,0.01,0.01,0.01,0.01,0.01,0.01</thickness>
			</element>
			<element id="6">
				<thickness>0.01,0.01,0.01,0.01,0.01,0.01,0.01,0.01</thickness>
			</element>
			<element id="7">
				<thickness>0.01,0.01,0.01,0.01,0.01,0.01,0.01,0.01</thickness>
			</element>
			<element id="8">
				<thickness>0.01,0.01,0.01,0.01,0.01,0.01,0.01,0.01</thickness>
			</element>
			<element id="9">
				<thickness>0.01,0.01,0.01,0.01,0.01,0.01,0.01,0.01</thickness>
			</element>
			<element id="10">
				<thickness>0.01,0.01,0.01,0.01,0.01,0.01,0.01,0.01</thickness>
			</element>
			<element id="11">
				<thickness>0.01,0.01,0.01,0.01,0.01,0.01,0.01,0.01</thickness>
			</element>
			<element id="12">
				<thickness>0.01,0.01,0.01,0.01,0.01,0.01,0.01,0.01</thickness>
			</element>
			<element id="13">
				<thickness>0.01,0.01,0.01,0.01,0.01,0.01,0.01,0.01</thickness>
			</element>
			<element id="14">
				<thickness>0.01,0.01,0.01,0.01,0.01,0.01,0.01,0.01</thickness>
			</element>
			<element id="15">
				<thickness>0.01,0.01,0.01,0.01,0.01,0.01,0.01,0.01</thickness>
			</element>
			<element id="16">
				<thickness>0.01,0.01,0.01,0.01,0.01,0.01,0.01,0.01</thickness>
			</element>
			<element id="17">
				<thickness>0.01,0.01,0.01,0.01,0.01,0.01,0.01,0.01</thickness>
			</element>
			<element id="18">
				<thickness>0.01,0.01,0.01,0.01,0.01,0.01,0.01,0.01</thickness>
			</element>
			<element id="19">
				<thickness>0.01,0.01,0.01,0.01,0.01,0.01,0.01,0.01</thickness>
			</element>
			<element id="20">
				<thickness>0.01,0.01,0.01,0.01,0.01,0.01,0.01,0.01</thickness>
			</element>
			<element id="21">
				<thickness>0.01,0.01,0.01,0.01,0.01,0.01,0.01,0.01</thickness>
			</element>
			<element id="22">
				<thickness>0.01,0.01,0.01,0.01,0.01,0.01,0.01,0.01</thickness>
			</element>
			<element id="23">
				<thickness>0.01,0.01,0.01,0.01,0.01,0.01,0.01,0.01</thickness>
			</element>
			<element id="24">
				<thickness>0.01,0.01,0.01,0.01,0.01,0.01,0.01,0.01</thickness>
			</element>
			<element id="25">
				<thickness>0.01,0.01,0.01,0.01,0.01,0.01,0.01,0.01</thickness>
			</element>
			<element id="26">
				<thickness>0.01,0.01,0.01,0.01,0.01,0.01,0.01,0.01</thickness>
			</element>
			<element id="27">
				<thickness>0.01,0.01,0.01,0.01,0.01,0.01,0.01,0.01</thickness>
			</element>
			<element id="28">
				<thickness>0.01,0.01,0.01,0.01,0.01,0.01,0.01,0.01</thickness>
			</element>
			<element id="29">
				<thickness>0.01,0.01,0.01,0.01,0.01,0.01,0.01,0.01</thickness>
			</element>
			<element id="30">
				<thickness>0.01,0.01,0.01,0.01,0.01,0.01,0.01,0.01</thickness>
			</element>
			<element id="31">
				<thickness>0.01,0.01,0.01,0.01,0.01,0.01,0.01,0.01</thickness>
			</element>
			<element id="32">
				<thickness>0.01,0.01,0.01,0.01,0.01,0.01,0.01,0.01</thickness>
			</element>
			<element id="33">
				<thickness>0.01,0.01,0.01,0.01,0.01,0.01,0.01,0.01</thickness>
			</element>
			<element id="34">
				<thickness>0.01,0.01,0.01,0.01,0.01,0.01,0.01,0.01</thickness>
			</element>
			<element id="35">
				<thickness>0.01,0.01,0.01,0.01,0.01,0.01,0.01,0.01</thickness>
			</element>
			<element id="36">
				<thickness>0.01,0.01,0.01,0.01,0.01,0.01,0.01,0.01</thickness>
			</element>
			<element id="37">
				<thickness>0.01,0.01,0.01,0.01,0.01,0.01,0.01,0.01</thickness>
			</element>
			<element id="38">
				<thickness>0.01,0.01,0.01,0.01,0.01,0.01,0.01,0.01</thickness>
			</element>
			<element id="39">
				<thickness>0.01,0.01,0.01,0.01,0.01,0.01,0.01,0.01</thickness>
			</element>
			<element id="40">
				<thickness>0.01,0.01,0.01,0.01,0.01,0.01,0.01,0.01</thickness>
			</element>
			<element id="41">
				<thickness>0.01,0.01,0.01,0.01,0.01,0.01,0.01,0.01</thickness>
			</element>
			<element id="42">
				<thickness>0.01,0.01,0.01,0.01,0.01,0.01,0.01,0.01</thickness>
			</element>
			<element id="43">
				<thickness>0.01,0.01,0.01,0.01,0.01,0.01,0.01,0.01</thickness>
			</element>
			<element id="44">
				<thickness>0.01,0.01,0.01,0.01,0.01,0.01,0.01,0.01</thickness>
			</element>
			<element id="45">
				<thickness>0.01,0.01,0.01,0.01,0.01,0.01,0.01,0.01</thickness>
			</element>
			<element id="46">
				<thickness>0.01,0.01,0.01,0.01,0.01,0.01,0.01,0.01</thickness>
			</element>
			<element id="47">
				<thickness>0.01,0.01,0.01,0.01,0.01,0.01,0.01,0.01</thickness>
			</element>
			<element id="48">
				<thickness>0.01,0.01,0.01,0.01,0.01,0.01,0.01,0.01</thickness>
			</element>
			<element id="49">
				<thickness>0.01,0.01,0.01,0.01,0.01,0.01,0.01,0.01</thickness>
			</element>
			<element id="50">
				<thickness>0.01,0.01,0.01,0.01,0.01,0.01,0.01,0.01</thickness>
			</element>
			<element id="51">
				<thickness>0.01,0.01,0.01,0.01,0.01,0.01,0.01,0.01</thickness>
			</element>
			<element id="52">
				<thickness>0.01,0.01,0.01,0.01,0.01,0.01,0.01,0.01</thickness>
			</element>
			<element id="53">
				<thickness>0.01,0.01,0.01,0.01,0.01,0.01,0.01,0.01</thickness>
			</element>
			<element id="54">
				<thickness>0.01,0.01,0.01,0.01,0.01,0.01,0.01,0.01</thickness>
			</element>
			<element id="55">
				<thickness>0.01,0.01,0.01,0.01,0.01,0.01,0.01,0.01</thickness>
			</element>
			<element id="56">
				<thickness>0.01,0.01,0.01,0.01,0.01,0.01,0.01,0.01</thickness>
			</element>
			<element id="57">
				<thickness>0.01,0.01,0.01,0.01,0.01,0.01,0.01,0.01</thickness>
			</element>
			<element id="58">
				<thickness>0.01,0.01,0.01,0.01,0.01,0.01,0.01,0.01</thickness>
			</element>
			<element id="59">
				<thickness>0.01,0.01,0.01,0.01,0.01,0.01,0.01,0.01</thickness>
			</element>
			<element id="60">
				<thickness>0.01,0.01,0.01,0.01,0.01,0.01,0.01,0.01</thickness>
			</element>
			<element id="61">
				<thickness>0.01,0.01,0.01,0.01,0.01,0.01,0.01,0.01</thickness>
			</element>
			<element id="62">
				<thickness>0.01,0.01,0.01,0.01,0.01,0.01,0.01,0.01</thickness>
			</element>
			<element id="63">
				<thickness>0.01,0.01,0.01,0.01,0.01,0.01,0.01,0.01</thickness>
			</element>
			<element id="64">
				<thickness>0.01,0.01,0.01,0.01,0.01,0.01,0.01,0.01</thickness>
			</element>
			<element id="65">
				<thickness>0.01,0.01,0.01,0.01,0.01,0.01,0.01,0.01</thickness>
			</element>
			<element id="66">
				<thickness>0.01,0.01,0.01,0.01,0.01,0.01,0.01,0.01</thickness>
			</element>
			<element id="67">
				<thickness>0.01,0.01,0.01,0.01,0.01,0.01,0.01,0.01</thickness>
			</element>
			<element id="68">
				<thickness>0.01,0.01,0.01,0.01,0.01,0.01,0.01,0.01</thickness>
			</element>
			<element id="69">
				<thickness>0.01,0.01,0.01,0.01,0.01,0.01,0.01,0.01</thickness>
			</element>
			<element id="70">
				<thickness>0.01,0.01,0.01,0.01,0.01,0.01,0.01,0.01</thickness>
			</element>
			<element id="71">
				<thickness>0.01,0.01,0.01,0.01,0.01,0.01,0.01,0.01</thickness>
			</element>
			<element id="72">
				<thickness>0.01,0.01,0.01,0.01,0.01,0.01,0.01,0.01</thickness>
			</element>
			<element id="73">
				<thickness>0.01,0.01,0.01,0.01,0.01,0.01,0.01,0.01</thickness>
			</element>
			<element id="74">
				<thickness>0.01,0.01,0.01,0.01,0.01,0.01,0.01,0.01</thickness>
			</element>
			<element id="75">
				<thickness>0.01,0.01,0.01,0.01,0.01,0.01,0.01,0.01</thickness>
			</element>
			<element id="76">
				<thickness>0.01,0.01,0.01,0.01,0.01,0.01,0.01,0.01</thickness>
			</element>
			<element id="77">
				<thickness>0.01,0.01,0.01,0.01,0.01,0.01,0.01,0.01</thickness>
			</element>
			<element id="78">
				<thickness>0.01,0.01,0.01,0.01,0.01,0.01,0.01,0.01</thickness>
			</element>
			<element id="79">
				<thickness>0.01,0.01,0.01,0.01,0.01,0.01,0.01,0.01</thickness>
			</element>
			<element id="80">
				<thickness>0.01,0.01,0.01,0.01,0.01,0.01,0.01,0.01</thickness>
			</element>
			<element id="81">
				<thickness>0.01,0.01,0.01,0.01,0.01,0.01,0.01,0.01</thickness>
			</element>
			<element id="82">
				<thickness>0.01,0.01,0.01,0.01,0.01,0.01,0.01,0.01</thickness>
			</element>
			<element id="83">
				<thickness>0.01,0.01,0.01,0.01,0.01,0.01,0.01,0.01</thickness>
			</element>
			<element id="84">
				<thickness>0.01,0.01,0.01,0.01,0.01,0.01,0.01,0.01</thickness>
			</element>
			<element id="85">
				<thickness>0.01,0.01,0.01,0.01,0.01,0.01,0.01,0.01</thickness>
			</element>
			<element id="86">
				<thickness>0.01,0.01,0.01,0.01,0.01,0.01,0.01,0.01</thickness>
			</element>
			<element id="87">
				<thickness>0.01,0.01,0.01,0.01,0.01,0.01,0.01,0.01</thickness>
			</element>
			<element id="88">
				<thickness>0.01,0.01,0.01,0.01,0.01,0.01,0.01,0.01</thickness>
			</element>
			<element id="89">
				<thickness>0.01,0.01,0.01,0.01,0.01,0.01,0.01,0.01</thickness>
			</element>
			<element id="90">
				<thickness>0.01,0.01,0.01,0.01,0.01,0.01,0.01,0.01</thickness>
			</element>
			<element id="91">
				<thickness>0.01,0.01,0.01,0.01,0.01,0.01,0.01,0.01</thickness>
			</element>
			<element id="92">
				<thickness>0.01,0.01,0.01,0.01,0.01,0.01,0.01,0.01</thickness>
			</element>
			<element id="93">
				<thickness>0.01,0.01,0.01,0.01,0.01,0.01,0.01,0.01</thickness>
			</element>
			<element id="94">
				<thickness>0.01,0.01,0.01,0.01,0.01,0.01,0.01,0.01</thickness>
			</element>
			<element id="95">
				<thickness>0.01,0.01,0.01,0.01,0.01,0.01,0.01,0.01</thickness>
			</element>
			<element id="96">
				<thickness>0.01,0.01,0.01,0.01,0.01,0.01,0.01,0.01</thickness>
			</element>
			<element id="97">
				<thickness>0.01,0.01,0.01,0.01,0.01,0.01,0.01,0.01</thickness>
			</element>
			<element id="98">
				<thickness>0.01,0.01,0.01,0.01,0.01,0.01,0.01,0.01</thickness>
			</element>
			<element id="99">
				<thickness>0.01,0.01,0.01,0.01,0.01,0.01,0.01,0.01</thickness>
			</element>
			<element id="100">
				<thickness>0.01,0.01,0.01,0.01,0.01,0.01,0.01,0.01</thickness>
			</element>
			<element id="101">
				<thickness>0.01,0.01,0.01,0.01,0.01,0.01,0.01,0.01</thickness>
			</element>
			<element id="102">
				<thickness>0.01,0.01,0.01,0.01,0.01,0.01,0.01,0.01</thickness>
			</element>
			<element id="103">
				<thickness>0.01,0.01,0.01,0.01,0.01,0.01,0.01,0.01</thickness>
			</element>
			<element id="104">
				<thickness>0.01,0.01,0.01,0.01,0.01,0.01,0.01,0.01</thickness>
			</element>
			<element id="105">
				<thickness>0.01,0.01,0.01,0.01,0.01,0.01,0.01,0.01</thickness>
			</element>
			<element id="106">
				<thickness>0.01,0.01,0.01,0.01,0.01,0.01,0.01,0.01</thickness>
			</element>
			<element id="107">
				<thickness>0.01,0.01,0.01,0.01,0.01,0.01,0.01,0.01</thickness>
			</element>
			<element id="108">
				<thickness>0.01,0.01,0.01,0.01,0.01,0.01,0.01,0.01</thickness>
			</element>
			<element id="109">
				<thickness>0.01,0.01,0.01,0.01,0.01,0.01,0.01,0.01</thickness>
			</element>
			<element id="110">
				<thickness>0.01,0.01,0.01,0.01,0.01,0.01,0.01,0.01</thickness>
			</element>
			<element id="111">
				<thickness>0.01,0.01,0.01,0.01,0.01,0.01,0.01,0.01</thickness>
			</element>
			<element id="112">
				<thickness>0.01,0.01,0.01,0.01,0.01,0.01,0.01,0.01</thickness>
			</element>
			<element id="113">
				<thickness>0.01,0.01,0.01,0.01,0.01,0.01,0.01,0.01</thickness>
			</element>
			<element id="114">
				<thickness>0.01,0.01,0.01,0.01,0.01,0.01,0.01,0.01</thickness>
			</element>
			<element id="115">
				<thickness>0.01,0.01,0.01,0.01,0.01,0.01,0.01,0.01</thickness>
			</element>
			<element id="116">
				<thickness>0.01,0.01,0.01,0.01,0.01,0.01,0.01,0.01</thickness>
			</element>
			<element id="117">
				<thickness>0.01,0.01,0.01,0.01,0.01,0.01,0.01,0.01</thickness>
			</element>
			<element id="118">
				<thickness>0.01,0.01,0.01,0.01,0.01,0.01,0.01,0.01</thickness>
			</element>
			<element id="119">
				<thickness>0.01,0.01,0.01,0.01,0.01,0.01,0.01,0.01</thickness>
			</element>
			<element id="120">
				<thickness>0.01,0.01,0.01,0.01,0.01,0.01,0.01,0.01</thickness>
			</element>
			<element id="121">
				<thickness>0.01,0.01,0.01,0.01,0.01,0.01,0.01,0.01</thickness>
			</element>
			<element id="122">
				<thickness>0.01,0.01,0.01,0.01,0.01,0.01,0.01,0.01</thickness>
			</element>
			<element id="123">
				<thickness>0.01,0.01,0.01,0.01,0.01,0.01,0.01,0.01</thickness>
			</element>
			<element id="124">
				<thickness>0.01,0.01,0.01,0.01,0.01,0.01,0.01,0.01</thickness>
			</element>
			<element id="125">
				<thickness>0.01,0.01,0.01,0.01,0.01,0.01,0.01,0.01</thickness>
			</element>
			<element id="126">
				<thickness>0.01,0.01,0.01,0.01,0.01,0.01,0.01,0.01</thickness>
			</element>
			<element id="127">
				<thickness>0.01,0.01,0.01,0.01,0.01,0.01,0.01,0.01</thickness>
			</element>
			<element id="128">
				<thickness>0.01,0.01,0.01,0.01,0.01,0.01,0.01,0.01</thickness>
			</element>
			<element id="129">
				<thickness>0.01,0.01,0.01,0.01,0.01,0.01,0.01,0.01</thickness>
			</element>
			<element id="130">
				<thickness>0.01,0.01,0.01,0.01,0.01,0.01,0.01,0.01</thickness>
			</element>
			<element id="131">
				<thickness>0.01,0.01,0.01,0.01,0.01,0.01,0.01,0.01</thickness>
			</element>
			<element id="132">
				<thickness>0.01,0.01,0.01,0.01,0.01,0.01,0.01,0.01</thickness>
			</element>
			<element id="133">
				<thickness>0.01,0.01,0.01,0.01,0.01,0.01,0.01,0.01</thickness>
			</element>
			<element id="134">
				<thickness>0.01,0.01,0.01,0.01,0.01,0.01,0.01,0.01</thickness>
			</element>
			<element id="135">
				<thickness>0.01,0.01,0.01,0.01,0.01,0.01,0.01,0.01</thickness>
			</element>
			<element id="136">
				<thickness>0.01,0.01,0.01,0.01,0.01,0.01,0.01,0.01</thickness>
			</element>
			<element id="137">
				<thickness>0.01,0.01,0.01,0.01,0.01,0.01,0.01,0.01</thickness>
			</element>
			<element id="138">
				<thickness>0.01,0.01,0.01,0.01,0.01,0.01,0.01,0.01</thickness>
			</element>
			<element id="139">
				<thickness>0.01,0.01,0.01,0.01,0.01,0.01,0.01,0.01</thickness>
			</element>
			<element id="140">
				<thickness>0.01,0.01,0.01,0.01,0.01,0.01,0.01,0.01</thickness>
			</element>
			<element id="141">
				<thickness>0.01,0.01,0.01,0.01,0.01,0.01,0.01,0.01</thickness>
			</element>
			<element id="142">
				<thickness>0.01,0.01,0.01,0.01,0.01,0.01,0.01,0.01</thickness>
			</element>
			<element id="143">
				<thickness>0.01,0.01,0.01,0.01,0.01,0.01,0.01,0.01</thickness>
			</element>
			<element id="144">
				<thickness>0.01,0.01,0.01,0.01,0.01,0.01,0.01,0.01</thickness>
			</element>
			<element id="145">
				<thickness>0.01,0.01,0.01,0.01,0.01,0.01,0.01,0.01</thickness>
			</element>
			<element id="146">
				<thickness>0.01,0.01,0.01,0.01,0.01,0.01,0.01,0.01</thickness>
			</element>
			<element id="147">
				<thickness>0.01,0.01,0.01,0.01,0.01,0.01,0.01,0.01</thickness>
			</element>
			<element id="148">
				<thickness>0.01,0.01,0.01,0.01,0.01,0.01,0.01,0.01</thickness>
			</element>
			<element id="149">
				<thickness>0.01,0.01,0.01,0.01,0.01,0.01,0.01,0.01</thickness>
			</element>
			<element id="150">
				<thickness>0.01,0.01,0.01,0.01,0.01,0.01,0.01,0.01</thickness>
			</element>
			<element id="151">
				<thickness>0.01,0.01,0.01,0.01,0.01,0.01,0.01,0.01</thickness>
			</element>
			<element id="152">
				<thickness>0.01,0.01,0.01,0.01,0.01,0.01,0.01,0.01</thickness>
			</element>
			<element id="153">
				<thickness>0.01,0.01,0.01,0.01,0.01,0.01,0.01,0.01</thickness>
			</element>
			<element id="154">
				<thickness>0.01,0.01,0.01,0.01,0.01,0.01,0.01,0.01</thickness>
			</element>
			<element id="155">
				<thickness>0.01,0.01,0.01,0.01,0.01,0.01,0.01,0.01</thickness>
			</element>
			<element id="156">
				<thickness>0.01,0.01,0.01,0.01,0.01,0.01,0.01,0.01</thickness>
			</element>
			<element id="157">
				<thickness>0.01,0.01,0.01,0.01,0.01,0.01,0.01,0.01</thickness>
			</element>
			<element id="158">
				<thickness>0.01,0.01,0.01,0.01,0.01,0.01,0.01,0.01</thickness>
			</element>
			<element id="159">
				<thickness>0.01,0.01,0.01,0.01,0.01,0.01,0.01,0.01</thickness>
			</element>
			<element id="160">
				<thickness>0.01,0.01,0.01,0.01,0.01,0.01,0.01,0.01</thickness>
			</element>
			<element id="161">
				<thickness>0.01,0.01,0.01,0.01,0.01,0.01,0.01,0.01</thickness>
			</element>
			<element id="162">
				<thickness>0.01,0.01,0.01,0.01,0.01,0.01,0.01,0.01</thickness>
			</element>
			<element id="163">
				<thickness>0.01,0.01,0.01,0.01,0.01,0.01,0.01,0.01</thickness>
			</element>
			<element id="164">
				<thickness>0.01,0.01,0.01,0.01,0.01,0.01,0.01,0.01</thickness>
			</element>
			<element id="165">
				<thickness>0.01,0.01,0.01,0.01,0.01,0.01,0.01,0.01</thickness>
			</element>
			<element id="166">
				<thickness>0.01,0.01,0.01,0.01,0.01,0.01,0.01,0.01</thickness>
			</element>
			<element id="167">
				<thickness>0.01,0.01,0.01,0.01,0.01,0.01,0.01,0.01</thickness>
			</element>
			<element id="168">
				<thickness>0.01,0.01,0.01,0.01,0.01,0.01,0.01,0.01</thickness>
			</element>
			<element id="169">
				<thickness>0.01,0.01,0.01,0.01,0.01,0.01,0.01,0.01</thickness>
			</element>
			<element id="170">
				<thickness>0.01,0.01,0.01,0.01,0.01,0.01,0.01,0.01</thickness>
			</element>
			<element id="171">
				<thickness>0.01,0.01,0.01,0.01,0.01,0.01,0.01,0.01</thickness>
			</element>
			<element id="172">
				<thickness>0.01,0.01,0.01,0.01,0.01,0.01,0.01,0.01</thickness>
			</element>
			<element id="173">
				<thickness>0.01,0.01,0.01,0.01,0.01,0.01,0.01,0.01</thickness>
			</element>
			<element id="174">
				<thickness>0.01,0.01,0.01,0.01,0.01,0.01,0.01,0.01</thickness>
			</element>
			<element id="175">
				<thickness>0.01,0.01,0.01,0.01,0.01,0.01,0.01,0.01</thickness>
			</element>
			<element id="176">
				<thickness>0.01,0.01,0.01,0.01,0.01,0.01,0.01,0.01</thickness>
			</element>
			<element id="177">
				<thickness>0.01,0.01,0.01,0.01,0.01,0.01,0.01,0.01</thickness>
			</element>
			<element id="178">
				<thickness>0.01,0.01,0.01,0.01,0.01,0.01,0.01,0.01</thickness>
			</element>
			<element id="179">
				<thickness>0.01,0.01,0.01,0.01,0.01,0.01,0.01,0.01</thickness>
			</element>
			<element id="180">
				<thickness>0.01,0.01,0.01,0.01,0.01,0.01,0.01,0.01</thickness>
			</element>
			<element id="181">
				<thickness>0.01,0.01,0.01,0.01,0.01,0.01,0.01,0.01</thickness>
			</element>
			<element id="182">
				<thickness>0.01,0.01,0.01,0.01,0.01,0.01,0.01,0.01</thickness>
			</element>
			<element id="183">
				<thickness>0.01,0.01,0.01,0.01,0.01,0.01,0.01,0.01</thickness>
			</element>
			<element id="184">
				<thickness>0.01,0.01,0.01,0.01,0.01,0.01,0.01,0.01</thickness>
			</element>
			<element id="185">
				<thickness>0.01,0.01,0.01,0.01,0.01,0.01,0.01,0.01</thickness>
			</element>
			<element id="186">
				<thickness>0.01,0.01,0.01,0.01,0.01,0.01,0.01,0.01</thickness>
			</element>
			<element id="187">
				<thickness>0.01,0.01,0.01,0.01,0.01,0.01,0.01,0.01</thickness>
			</element>
			<element id="188">
				<thickness>0.01,0.01,0.01,0.01,0.01,0.01,0.01,0.01</thickness>
			</element>
			<element id="189">
				<thickness>0.01,0.01,0.01,0.01,0.01,0.01,0.01,0.01</thickness>
			</element>
			<element id="190">
				<thickness>0.01,0.01,0.01,0.01,0.01,0.01,0.01,0.01</thickness>
			</element>
			<element id="191">
				<thickness>0.01,0.01,0.01,0.01,0.01,0.01,0.01,0.01</thickness>
			</element>
			<element id="192">
				<thickness>0.01,0.01,0.01,0.01,0.01,0.01,0.01,0.01</thickness>
			</element>
			<element id="193">
				<thickness>0.01,0.01,0.01,0.01,0.01,0.01,0.01,0.01</thickness>
			</element>
			<element id="194">
				<thickness>0.01,0.01,0.01,0.01,0.01,0.01,0.01,0.01</thickness>
			</element>
			<element id="195">
				<thickness>0.01,0.01,0.01,0.01,0.01,0.01,0.01,0.01</thickness>
			</element>
			<element id="196">
				<thickness>0.01,0.01,0.01,0.01,0.01,0.01,0.01,0.01</thickness>
			</element>
			<element id="197">
				<thickness>0.01,0.01,0.01,0.01,0.01,0.01,0.01,0.01</thickness>
			</element>
			<element id="198">
				<thickness>0.01,0.01,0.01,0.01,0.01,0.01,0.01,0.01</thickness>
			</element>
			<element id="199">
				<thickness>0.01,0.01,0.01,0.01,0.01,0.01,0.01,0.01</thickness>
			</element>
			<element id="200">
				<thickness>0.01,0.01,0.01,0.01,0.01,0.01,0.01,0.01</thickness>
			</element>
			<element id="201">
				<thickness>0.01,0.01,0.01,0.01,0.01,0.01,0.01,0.01</thickness>
			</element>
			<element id="202">
				<thickness>0.01,0.01,0.01,0.01,0.01,0.01,0.01,0.01</thickness>
			</element>
			<element id="203">
				<thickness>0.01,0.01,0.01,0.01,0.01,0.01,0.01,0.01</thickness>
			</element>
			<element id="204">
				<thickness>0.01,0.01,0.01,0.01,0.01,0.01,0.01,0.01</thickness>
			</element>
			<element id="205">
				<thickness>0.01,0.01,0.01,0.01,0.01,0.01,0.01,0.01</thickness>
			</element>
			<element id="206">
				<thickness>0.01,0.01,0.01,0.01,0.01,0.01,0.01,0.01</thickness>
			</element>
			<element id="207">
				<thickness>0.01,0.01,0.01,0.01,0.01,0.01,0.01,0.01</thickness>
			</element>
			<element id="208">
				<thickness>0.01,0.01,0.01,0.01,0.01,0.01,0.01,0.01</thickness>
			</element>
			<element id="209">
				<thickness>0.01,0.01,0.01,0.01,0.01,0.01,0.01,0.01</thickness>
			</element>
			<element id="210">
				<thickness>0.01,0.01,0.01,0.01,0.01,0.01,0.01,0.01</thickness>
			</element>
			<element id="211">
				<thickness>0.01,0.01,0.01,0.01,0.01,0.01,0.01,0.01</thickness>
			</element>
			<element id="212">
				<thickness>0.01,0.01,0.01,0.01,0.01,0.01,0.01,0.01</thickness>
			</element>
			<element id="213">
				<thickness>0.01,0.01,0.01,0.01,0.01,0.01,0.01,0.01</thickness>
			</element>
			<element id="214">
				<thickness>0.01,0.01,0.01,0.01,0.01,0.01,0.01,0.01</thickness>
			</element>
			<element id="215">
				<thickness>0.01,0.01,0.01,0.01,0.01,0.01,0.01,0.01</thickness>
			</element>
			<element id="216">
				<thickness>0.01,0.01,0.01,0.01,0.01,0.01,0.01,0.01</thickness>
			</element>
			<element id="217">
				<thickness>0.01,0.01,0.01,0.01,0.01,0.01,0.01,0.01</thickness>
			</element>
			<element id="218">
				<thickness>0.01,0.01,0.01,0.01,0.01,0.01,0.01,0.01</thickness>
			</element>
			<element id="219">
				<thickness>0.01,0.01,0.01,0.01,0.01,0.01,0.01,0.01</thickness>
			</element>
			<element id="220">
				<thickness>0.01,0.01,0.01,0.01,0.01,0.01,0.01,0.01</thickness>
			</element>
			<element id="221">
				<thickness>0.01,0.01,0.01,0.01,0.01,0.01,0.01,0.01</thickness>
			</element>
			<element id="222">
				<thickness>0.01,0.01,0.01,0.01,0.01,0.01,0.01,0.01</thickness>
			</element>
			<element id="223">
				<thickness>0.01,0.01,0.01,0.01,0.01,0.01,0.01,0.01</thickness>
			</element>
			<element id="224">
				<thickness>0.01,0.01,0.01,0.01,0.01,0.01,0.01,0.01</thickness>
			</element>
			<element id="225">
				<thickness>0.01,0.01,0.01,0.01,0.01,0.01,0.01,0.01</thickness>
			</element>
			<element id="226">
				<thickness>0.01,0.01,0.01,0.01,0.01,0.01,0.01,0.01</thickness>
			</element>
			<element id="227">
				<thickness>0.01,0.01,0.01,0.01,0.01,0.01,0.01,0.01</thickness>
			</element>
			<element id="228">
				<thickness>0.01,0.01,0.01,0.01,0.01,0.01,0.01,0.01</thickness>
			</element>
			<element id="229">
				<thickness>0.01,0.01,0.01,0.01,0.01,0.01,0.01,0.01</thickness>
			</element>
			<element id="230">
				<thickness>0.01,0.01,0.01,0.01,0.01,0.01,0.01,0.01</thickness>
			</element>
			<element id="231">
				<thickness>0.01,0.01,0.01,0.01,0.01,0.01,0.01,0.01</thickness>
			</element>
			<element id="232">
				<thickness>0.01,0.01,0.01,0.01,0.01,0.01,0.01,0.01</thickness>
			</element>
			<element id="233">
				<thickness>0.01,0.01,0.01,0.01,0.01,0.01,0.01,0.01</thickness>
			</element>
			<element id="234">
				<thickness>0.01,0.01,0.01,0.01,0.01,0.01,0.01,0.01</thickness>
			</element>
			<element id="235">
				<thickness>0.01,0.01,0.01,0.01,0.01,0.01,0.01,0.01</thickness>
			</element>
			<element id="236">
				<thickness>0.01,0.01,0.01,0.01,0.01,0.01,0.01,0.01</thickness>
			</element>
			<element id="237">
				<thickness>0.01,0.01,0.01,0.01,0.01,0.01,0.01,0.01</thickness>
			</element>
			<element id="238">
				<thickness>0.01,0.01,0.01,0.01,0.01,0.01,0.01,0.01</thickness>
			</element>
			<element id="239">
				<thickness>0.01,0.01,0.01,0.01,0.01,0.01,0.01,0.01</thickness>
			</element>
			<element id="240">
				<thickness>0.01,0.01,0.01,0.01,0.01,0.01,0.01,0.01</thickness>
			</element>
			<element id="241">
				<thickness>0.01,0.01,0.01,0.01,0.01,0.01,0.01,0.01</thickness>
			</element>
			<element id="242">
				<thickness>0.01,0.01,0.01,0.01,0.01,0.01,0.01,0.01</thickness>
			</element>
			<element id="243">
				<thickness>0.01,0.01,0.01,0.01,0.01,0.01,0.01,0.01</thickness>
			</element>
			<element id="244">
				<thickness>0.01,0.01,0.01,0.01,0.01,0.01,0.01,0.01</thickness>
			</element>
			<element id="245">
				<thickness>0.01,0.01,0.01,0.01,0.01,0.01,0.01,0.01</thickness>
			</element>
			<element id="246">
				<thickness>0.01,0.01,0.01,0.01,0.01,0.01,0.01,0.01</thickness>
			</element>
			<element id="247">
				<thickness>0.01,0.01,0.01,0.01,0.01,0.01,0.01,0.01</thickness>
			</element>
			<element id="248">
				<thickness>0.01,0.01,0.01,0.01,0.01,0.01,0.01,0.01</thickness>
			</element>
			<element id="249">
				<thickness>0.01,0.01,0.01,0.01,0.01,0.01,0.01,0.01</thickness>
			</element>
			<element id="250">
				<thickness>0.01,0.01,0.01,0.01,0.01,0.01,0.01,0.01</thickness>
			</element>
			<element id="251">
				<thickness>0.01,0.01,0.01,0.01,0.01,0.01,0.01,0.01</thickness>
			</element>
			<element id="252">
				<thickness>0.01,0.01,0.01,0.01,0.01,0.01,0.01,0.01</thickness>
			</element>
			<element id="253">
				<thickness>0.01,0.01,0.01,0.01,0.01,0.01,0.01,0.01</thickness>
			</element>
			<element id="254">
				<thickness>0.01,0.01,0.01,0.01,0.01,0.01,0.01,0.01</thickness>
			</element>
			<element id="255">
				<thickness>0.01,0.01,0.01,0.01,0.01,0.01,0.01,0.01</thickness>
			</element>
			<element id="256">
				<thickness>0.01,0.01,0.01,0.01,0.01,0.01,0.01,0.01</thickness>
			</element>
			<element id="257">
				<thickness>0.01,0.01,0.01,0.01,0.01,0.01,0.01,0.01</thickness>
			</element>
			<element id="258">
				<thickness>0.01,0.01,0.01,0.01,0.01,0.01,0.01,0.01</thickness>
			</element>
			<element id="259">
				<thickness>0.01,0.01,0.01,0.01,0.01,0.01,0.01,0.01</thickness>
			</element>
			<element id="260">
				<thickness>0.01,0.01,0.01,0.01,0.01,0.01,0.01,0.01</thickness>
			</element>
			<element id="261">
				<thickness>0.01,0.01,0.01,0.01,0.01,0.01,0.01,0.01</thickness>
			</element>
			<element id="262">
				<thickness>0.01,0.01,0.01,0.01,0.01,0.01,0.01,0.01</thickness>
			</element>
			<element id="263">
				<thickness>0.01,0.01,0.01,0.01,0.01,0.01,0.01,0.01</thickness>
			</element>
			<element id="264">
				<thickness>0.01,0.01,0.01,0.01,0.01,0.01,0.01,0.01</thickness>
			</element>
			<element id="265">
				<thickness>0.01,0.01,0.01,0.01,0.01,0.01,0.01,0.01</thickness>
			</element>
			<element id="266">
				<thickness>0.01,0.01,0.01,0.01,0.01,0.01,0.01,0.01</thickness>
			</element>
			<element id="267">
				<thickness>0.01,0.01,0.01,0.01,0.01,0.01,0.01,0.01</thickness>
			</element>
			<element id="268">
				<thickness>0.01,0.01,0.01,0.01,0.01,0.01,0.01,0.01</thickness>
			</element>
			<element id="269">
				<thickness>0.01,0.01,0.01,0.01,0.01,0.01,0.01,0.01</thickness>
			</element>
			<element id="270">
				<thickness>0.01,0.01,0.01,0.01,0.01,0.01,0.01,0.01</thickness>
			</element>
			<element id="271">
				<thickness>0.01,0.01,0.01,0.01,0.01,0.01,0.01,0.01</thickness>
			</element>
			<element id="272">
				<thickness>0.01,0.01,0.01,0.01,0.01,0.01,0.01,0.01</thickness>
			</element>
			<element id="273">
				<thickness>0.01,0.01,0.01,0.01,0.01,0.01,0.01,0.01</thickness>
			</element>
			<element id="274">
				<thickness>0.01,0.01,0.01,0.01,0.01,0.01,0.01,0.01</thickness>
			</element>
			<element id="275">
				<thickness>0.01,0.01,0.01,0.01,0.01,0.01,0.01,0.01</thickness>
			</element>
			<element id="276">
				<thickness>0.01,0.01,0.01,0.01,0.01,0.01,0.01,0.01</thickness>
			</element>
			<element id="277">
				<thickness>0.01,0.01,0.01,0.01,0.01,0.01,0.01,0.01</thickness>
			</element>
			<element id="278">
				<thickness>0.01,0.01,0.01,0.01,0.01,0.01,0.01,0.01</thickness>
			</element>
			<element id="279">
				<thickness>0.01,0.01,0.01,0.01,0.01,0.01,0.01,0.01</thickness>
			</element>
			<element id="280">
				<thickness>0.01,0.01,0.01,0.01,0.01,0.01,0.01,0.01</thickness>
			</element>
			<element id="281">
				<thickness>0.01,0.01,0.01,0.01,0.01,0.01,0.01,0.01</thickness>
			</element>
			<element id="282">
				<thickness>0.01,0.01,0.01,0.01,0.01,0.01,0.01,0.01</thickness>
			</element>
			<element id="283">
				<thickness>0.01,0.01,0.01,0.01,0.01,0.01,0.01,0.01</thickness>
			</element>
			<element id="284">
				<thickness>0.01,0.01,0.01,0.01,0.01,0.01,0.01,0.01</thickness>
			</element>
			<element id="285">
				<thickness>0.01,0.01,0.01,0.01,0.01,0.01,0.01,0.01</thickness>
			</element>
			<element id="286">
				<thickness>0.01,0.01,0.01,0.01,0.01,0.01,0.01,0.01</thickness>
			</element>
			<element id="287">
				<thickness>0.01,0.01,0.01,0.01,0.01,0.01,0.01,0.01</thickness>
			</element>
			<element id="288">
				<thickness>0.01,0.01,0.01,0.01,0.01,0.01,0.01,0.01</thickness>
			</element>
			<element id="289">
				<thickness>0.01,0.01,0.01,0.01,0.01,0.01,0.01,0.01</thickness>
			</element>
			<element id="290">
				<thickness>0.01,0.01,0.01,0.01,0.01,0.01,0.01,0.01</thickness>
			</element>
			<element id="291">
				<thickness>0.01,0.01,0.01,0.01,0.01,0.01,0.01,0.01</thickness>
			</element>
			<element id="292">
				<thickness>0.01,0.01,0.01,0.01,0.01,0.01,0.01,0.01</thickness>
			</element>
			<element id="293">
				<thickness>0.01,0.01,0.01,0.01,0.01,0.01,0.01,0.01</thickness>
			</element>
			<element id="294">
				<thickness>0.01,0.01,0.01,0.01,0.01,0.01,0.01,0.01</thickness>
			</element>
			<element id="295">
				<thickness>0.01,0.01,0.01,0.01,0.01,0.01,0.01,0.01</thickness>
			</element>
			<element id="296">
				<thickness>0.01,0.01,0.01,0.01,0.01,0.01,0.01,0.01</thickness>
			</element>
			<element id="297">
				<thickness>0.01,0.01,0.01,0.01,0.01,0.01,0.01,0.01</thickness>
			</element>
			<element id="298">
				<thickness>0.01,0.01,0.01,0.01,0.01,0.01,0.01,0.01</thickness>
			</element>
			<element id="299">
				<thickness>0.01,0.01,0.01,0.01,0.01,0.01,0.01,0.01</thickness>
			</element>
			<element id="300">
				<thickness>0.01,0.01,0.01,0.01,0.01,0.01,0.01,0.01</thickness>
			</element>
			<element id="301">
				<thickness>0.01,0.01,0.01,0.01,0.01,0.01,0.01,0.01</thickness>
			</element>
			<element id="302">
				<thickness>0.01,0.01,0.01,0.01,0.01,0.01,0.01,0.01</thickness>
			</element>
			<element id="303">
				<thickness>0.01,0.01,0.01,0.01,0.01,0.01,0.01,0.01</thickness>
			</element>
			<element id="304">
				<thickness>0.01,0.01,0.01,0.01,0.01,0.01,0.01,0.01</thickness>
			</element>
			<element id="305">
				<thickness>0.01,0.01,0.01,0.01,0.01,0.01,0.01,0.01</thickness>
			</element>
			<element id="306">
				<thickness>0.01,0.01,0.01,0.01,0.01,0.01,0.01,0.01</thickness>
			</element>
			<element id="307">
				<thickness>0.01,0.01,0.01,0.01,0.01,0.01,0.01,0.01</thickness>
			</element>
			<element id="308">
				<thickness>0.01,0.01,0.01,0.01,0.01,0.01,0.01,0.01</thickness>
			</element>
			<element id="309">
				<thickness>0.01,0.01,0.01,0.01,0.01,0.01,0.01,0.01</thickness>
			</element>
			<element id="310">
				<thickness>0.01,0.01,0.01,0.01,0.01,0.01,0.01,0.01</thickness>
			</element>
			<element id="311">
				<thickness>0.01,0.01,0.01,0.01,0.01,0.01,0.01,0.01</thickness>
			</element>
			<element id="312">
				<thickness>0.01,0.01,0.01,0.01,0.01,0.01,0.01,0.01</thickness>
			</element>
			<element id="313">
				<thickness>0.01,0.01,0.01,0.01,0.01,0.01,0.01,0.01</thickness>
			</element>
			<element id="314">
				<thickness>0.01,0.01,0.01,0.01,0.01,0.01,0.01,0.01</thickness>
			</element>
			<element id="315">
				<thickness>0.01,0.01,0.01,0.01,0.01,0.01,0.01,0.01</thickness>
			</element>
			<element id="316">
				<thickness>0.01,0.01,0.01,0.01,0.01,0.01,0.01,0.01</thickness>
			</element>
			<element id="317">
				<thickness>0.01,0.01,0.01,0.01,0.01,0.01,0.01,0.01</thickness>
			</element>
			<element id="318">
				<thickness>0.01,0.01,0.01,0.01,0.01,0.01,0.01,0.01</thickness>
			</element>
			<element id="319">
				<thickness>0.01,0.01,0.01,0.01,0.01,0.01,0.01,0.01</thickness>
			</element>
			<element id="320">
				<thickness>0.01,0.01,0.01,0.01,0.01,0.01,0.01,0.01</thickness>
			</element>
			<element id="321">
				<thickness>0.01,0.01,0.01,0.01,0.01,0.01,0.01,0.01</thickness>
			</element>
			<element id="322">
				<thickness>0.01,0.01,0.01,0.01,0.01,0.01,0.01,0.01</thickness>
			</element>
			<element id="323">
				<thickness>0.01,0.01,0.01,0.01,0.01,0.01,0.01,0.01</thickness>
			</element>
			<element id="324">
				<thickness>0.01,0.01,0.01,0.01,0.01,0.01,0.01,0.01</thickness>
			</element>
			<element id="325">
				<thickness>0.01,0.01,0.01,0.01,0.01,0.01,0.01,0.01</thickness>
			</element>
			<element id="326">
				<thickness>0.01,0.01,0.01,0.01,0.01,0.01,0.01,0.01</thickness>
			</element>
			<element id="327">
				<thickness>0.01,0.01,0.01,0.01,0.01,0.01,0.01,0.01</thickness>
			</element>
			<element id="328">
				<thickness>0.01,0.01,0.01,0.01,0.01,0.01,0.01,0.01</thickness>
			</element>
			<element id="329">
				<thickness>0.01,0.01,0.01,0.01,0.01,0.01,0.01,0.01</thickness>
			</element>
			<element id="330">
				<thickness>0.01,0.01,0.01,0.01,0.01,0.01,0.01,0.01</thickness>
			</element>
			<element id="331">
				<thickness>0.01,0.01,0.01,0.01,0.01,0.01,0.01,0.01</thickness>
			</element>
			<element id="332">
				<thickness>0.01,0.01,0.01,0.01,0.01,0.01,0.01,0.01</thickness>
			</element>
			<element id="333">
				<thickness>0.01,0.01,0.01,0.01,0.01,0.01,0.01,0.01</thickness>
			</element>
			<element id="334">
				<thickness>0.01,0.01,0.01,0.01,0.01,0.01,0.01,0.01</thickness>
			</element>
			<element id="335">
				<thickness>0.01,0.01,0.01,0.01,0.01,0.01,0.01,0.01</thickness>
			</element>
			<element id="336">
				<thickness>0.01,0.01,0.01,0.01,0.01,0.01,0.01,0.01</thickness>
			</element>
			<element id="337">
				<thickness>0.01,0.01,0.01,0.01,0.01,0.01,0.01,0.01</thickness>
			</element>
			<element id="338">
				<thickness>0.01,0.01,0.01,0.01,0.01,0.01,0.01,0.01</thickness>
			</element>
			<element id="339">
				<thickness>0.01,0.01,0.01,0.01,0.01,0.01,0.01,0.01</thickness>
			</element>
			<element id="340">
				<thickness>0.01,0.01,0.01,0.01,0.01,0.01,0.01,0.01</thickness>
			</element>
			<element id="341">
				<thickness>0.01,0.01,0.01,0.01,0.01,0.01,0.01,0.01</thickness>
			</element>
			<element id="342">
				<thickness>0.01,0.01,0.01,0.01,0.01,0.01,0.01,0.01</thickness>
			</element>
			<element id="343">
				<thickness>0.01,0.01,0.01,0.01,0.01,0.01,0.01,0.01</thickness>
			</element>
			<element id="344">
				<thickness>0.01,0.01,0.01,0.01,0.01,0.01,0.01,0.01</thickness>
			</element>
			<element id="345">
				<thickness>0.01,0.01,0.01,0.01,0.01,0.01,0.01,0.01</thickness>
			</element>
			<element id="346">
				<thickness>0.01,0.01,0.01,0.01,0.01,0.01,0.01,0.01</thickness>
			</element>
			<element id="347">
				<thickness>0.01,0.01,0.01,0.01,0.01,0.01,0.01,0.01</thickness>
			</element>
			<element id="348">
				<thickness>0.01,0.01,0.01,0.01,0.01,0.01,0.01,0.01</thickness>
			</element>
			<element id="349">
				<thickness>0.01,0.01,0.01,0.01,0.01,0.01,0.01,0.01</thickness>
			</element>
			<element id="350">
				<thickness>0.01,0.01,0.01,0.01,0.01,0.01,0.01,0.01</thickness>
			</element>
			<element id="351">
				<thickness>0.01,0.01,0.01,0.01,0.01,0.01,0.01,0.01</thickness>
			</element>
			<element id="352">
				<thickness>0.01,0.01,0.01,0.01,0.01,0.01,0.01,0.01</thickness>
			</element>
			<element id="353">
				<thickness>0.01,0.01,0.01,0.01,0.01,0.01,0.01,0.01</thickness>
			</element>
			<element id="354">
				<thickness>0.01,0.01,0.01,0.01,0.01,0.01,0.01,0.01</thickness>
			</element>
			<element id="355">
				<thickness>0.01,0.01,0.01,0.01,0.01,0.01,0.01,0.01</thickness>
			</element>
			<element id="356">
				<thickness>0.01,0.01,0.01,0.01,0.01,0.01,0.01,0.01</thickness>
			</element>
			<element id="357">
				<thickness>0.01,0.01,0.01,0.01,0.01,0.01,0.01,0.01</thickness>
			</element>
			<element id="358">
				<thickness>0.01,0.01,0.01,0.01,0.01,0.01,0.01,0.01</thickness>
			</element>
			<element id="359">
				<thickness>0.01,0.01,0.01,0.01,0.01,0.01,0.01,0.01</thickness>
			</element>
			<element id="360">
				<thickness>0.01,0.01,0.01,0.01,0.01,0.01,0.01,0.01</thickness>
			</element>
			<element id="361">
				<thickness>0.01,0.01,0.01,0.01,0.01,0.01,0.01,0.01</thickness>
			</element>
			<element id="362">
				<thickness>0.01,0.01,0.01,0.01,0.01,0.01,0.01,0.01</thickness>
			</element>
			<element id="363">
				<thickness>0.01,0.01,0.01,0.01,0.01,0.01,0.01,0.01</thickness>
			</element>
			<element id="364">
				<thickness>0.01,0.01,0.01,0.01,0.01,0.01,0.01,0.01</thickness>
			</element>
			<element id="365">
				<thickness>0.01,0.01,0.01,0.01,0.01,0.01,0.01,0.01</thickness>
			</element>
			<element id="366">
				<thickness>0.01,0.01,0.01,0.01,0.01,0.01,0.01,0.01</thickness>
			</element>
			<element id="367">
				<thickness>0.01,0.01,0.01,0.01,0.01,0.01,0.01,0.01</thickness>
			</element>
			<element id="368">
				<thickness>0.01,0.01,0.01,0.01,0.01,0.01,0.01,0.01</thickness>
			</element>
			<element id="369">
				<thickness>0.01,0.01,0.01,0.01,0.01,0.01,0.01,0.01</thickness>
			</element>
			<element id="370">
				<thickness>0.01,0.01,0.01,0.01,0.01,0.01,0.01,0.01</thickness>
			</element>
			<element id="371">
				<thickness>0.01,0.01,0.01,0.01,0.01,0.01,0.01,0.01</thickness>
			</element>
			<element id="372">
				<thickness>0.01,0.01,0.01,0.01,0.01,0.01,0.01,0.01</thickness>
			</element>
			<element id="373">
				<thickness>0.01,0.01,0.01,0.01,0.01,0.01,0.01,0.01</thickness>
			</element>
			<element id="374">
				<thickness>0.01,0.01,0.01,0.01,0.01,0.01,0.01,0.01</thickness>
			</element>
			<element id="375">
				<thickness>0.01,0.01,0.01,0.01,0.01,0.01,0.01,0.01</thickness>
			</element>
			<element id="376">
				<thickness>0.01,0.01,0.01,0.01,0.01,0.01,0.01,0.01</thickness>
			</element>
			<element id="377">
				<thickness>0.01,0.01,0.01,0.01,0.01,0.01,0.01,0.01</thickness>
			</element>
			<element id="378">
				<thickness>0.01,0.01,0.01,0.01,0.01,0.01,0.01,0.01</thickness>
			</element>
			<element id="379">
				<thickness>0.01,0.01,0.01,0.01,0.01,0.01,0.01,0.01</thickness>
			</element>
			<element id="380">
				<thickness>0.01,0.01,0.01,0.01,0.01,0.01,0.01,0.01</thickness>
			</element>
			<element id="381">
				<thickness>0.01,0.01,0.01,0.01,0.01,0.01,0.01,0.01</thickness>
			</element>
			<element id="382">
				<thickness>0.01,0.01,0.01,0.01,0.01,0.01,0.01,0.01</thickness>
			</element>
			<element id="383">
				<thickness>0.01,0.01,0.01,0.01,0.01,0.01,0.01,0.01</thickness>
			</element>
			<element id="384">
				<thickness>0.01,0.01,0.01,0.01,0.01,0.01,0.01,0.01</thickness>
			</element>
			<element id="385">
				<thickness>0.01,0.01,0.01,0.01,0.01,0.01,0.01,0.01</thickness>
			</element>
			<element id="386">
				<thickness>0.01,0.01,0.01,0.01,0.01,0.01,0.01,0.01</thickness>
			</element>
			<element id="387">
				<thickness>0.01,0.01,0.01,0.01,0.01,0.01,0.01,0.01</thickness>
			</element>
			<element id="388">
				<thickness>0.01,0.01,0.01,0.01,0.01,0.01,0.01,0.01</thickness>
			</element>
			<element id="389">
				<thickness>0.01,0.01,0.01,0.01,0.01,0.01,0.01,0.01</thickness>
			</element>
			<element id="390">
				<thickness>0.01,0.01,0.01,0.01,0.01,0.01,0.01,0.01</thickness>
			</element>
			<element id="391">
				<thickness>0.01,0.01,0.01,0.01,0.01,0.01,0.01,0.01</thickness>
			</element>
			<element id="392">
				<thickness>0.01,0.01,0.01,0.01,0.01,0.01,0.01,0.01</thickness>
			</element>
			<element id="393">
				<thickness>0.01,0.01,0.01,0.01,0.01,0.01,0.01,0.01</thickness>
			</element>
			<element id="394">
				<thickness>0.01,0.01,0.01,0.01,0.01,0.01,0.01,0.01</thickness>
			</element>
			<element id="395">
				<thickness>0.01,0.01,0.01,0.01,0.01,0.01,0.01,0.01</thickness>
			</element>
			<element id="396">
				<thickness>0.01,0.01,0.01,0.01,0.01,0.01,0.01,0.01</thickness>
			</element>
			<element id="397">
				<thickness>0.01,0.01,0.01,0.01,0.01,0.01,0.01,0.01</thickness>
			</element>
			<element id="398">
				<thickness>0.01,0.01,0.01,0.01,0.01,0.01,0.01,0.01</thickness>
			</element>
			<element id="399">
				<thickness>0.01,0.01,0.01,0.01,0.01,0.01,0.01,0.01</thickness>
			</element>
			<element id="400">
				<thickness>0.01,0.01,0.01,0.01,0.01,0.01,0.01,0.01</thickness>
			</element>
			<element id="401">
				<thickness>0.01,0.01,0.01,0.01,0.01,0.01,0.01,0.01</thickness>
			</element>
			<element id="402">
				<thickness>0.01,0.01,0.01,0.01,0.01,0.01,0.01,0.01</thickness>
			</element>
			<element id="403">
				<thickness>0.01,0.01,0.01,0.01,0.01,0.01,0.01,0.01</thickness>
			</element>
			<element id="404">
				<thickness>0.01,0.01,0.01,0.01,0.01,0.01,0.01,0.01</thickness>
			</element>
			<element id="405">
				<thickness>0.01,0.01,0.01,0.01,0.01,0.01,0.01,0.01</thickness>
			</element>
			<element id="406">
				<thickness>0.01,0.01,0.01,0.01,0.01,0.01,0.01,0.01</thickness>
			</element>
			<element id="407">
				<thickness>0.01,0.01,0.01,0.01,0.01,0.01,0.01,0.01</thickness>
			</element>
			<element id="408">
				<thickness>0.01,0.01,0.01,0.01,0.01,0.01,0.01,0.01</thickness>
			</element>
			<element id="409">
				<thickness>0.01,0.01,0.01,0.01,0.01,0.01,0.01,0.01</thickness>
			</element>
			<element id="410">
				<thickness>0.01,0.01,0.01,0.01,0.01,0.01,0.01,0.01</thickness>
			</element>
			<element id="411">
				<thickness>0.01,0.01,0.01,0.01,0.01,0.01,0.01,0.01</thickness>
			</element>
			<element id="412">
				<thickness>0.01,0.01,0.01,0.01,0.01,0.01,0.01,0.01</thickness>
			</element>
			<element id="413">
				<thickness>0.01,0.01,0.01,0.01,0.01,0.01,0.01,0.01</thickness>
			</element>
			<element id="414">
				<thickness>0.01,0.01,0.01,0.01,0.01,0.01,0.01,0.01</thickness>
			</element>
			<element id="415">
				<thickness>0.01,0.01,0.01,0.01,0.01,0.01,0.01,0.01</thickness>
			</element>
			<element id="416">
				<thickness>0.01,0.01,0.01,0.01,0.01,0.01,0.01,0.01</thickness>
			</element>
			<element id="417">
				<thickness>0.01,0.01,0.01,0.01,0.01,0.01,0.01,0.01</thickness>
			</element>
			<element id="418">
				<thickness>0.01,0.01,0.01,0.01,0.01,0.01,0.01,0.01</thickness>
			</element>
			<element id="419">
				<thickness>0.01,0.01,0.01,0.01,0.01,0.01,0.01,0.01</thickness>
			</element>
			<element id="420">
				<thickness>0.01,0.01,0.01,0.01,0.01,0.01,0.01,0.01</thickness>
			</element>
			<element id="421">
				<thickness>0.01,0.01,0.01,0.01,0.01,0.01,0.01,0.01</thickness>
			</element>
			<element id="422">
				<thickness>0.01,0.01,0.01,0.01,0.01,0.01,0.01,0.01</thickness>
			</element>
			<element id="423">
				<thickness>0.01,0.01,0.01,0.01,0.01,0.01,0.01,0.01</thickness>
			</element>
			<element id="424">
				<thickness>0.01,0.01,0.01,0.01,0.01,0.01,0.01,0.01</thickness>
			</element>
			<element id="425">
				<thickness>0.01,0.01,0.01,0.01,0.01,0.01,0.01,0.01</thickness>
			</element>
			<element id="426">
				<thickness>0.01,0.01,0.01,0.01,0.01,0.01,0.01,0.01</thickness>
			</element>
			<element id="427">
				<thickness>0.01,0.01,0.01,0.01,0.01,0.01,0.01,0.01</thickness>
			</element>
			<element id="428">
				<thickness>0.01,0.01,0.01,0.01,0.01,0.01,0.01,0.01</thickness>
			</element>
			<element id="429">
				<thickness>0.01,0.01,0.01,0.01,0.01,0.01,0.01,0.01</thickness>
			</element>
			<element id="430">
				<thickness>0.01,0.01,0.01,0.01,0.01,0.01,0.01,0.01</thickness>
			</element>
			<element id="431">
				<thickness>0.01,0.01,0.01,0.01,0.01,0.01,0.01,0.01</thickness>
			</element>
			<element id="432">
				<thickness>0.01,0.01,0.01,0.01,0.01,0.01,0.01,0.01</thickness>
			</element>
			<element id="433">
				<thickness>0.01,0.01,0.01,0.01,0.01,0.01,0.01,0.01</thickness>
			</element>
			<element id="434">
				<thickness>0.01,0.01,0.01,0.01,0.01,0.01,0.01,0.01</thickness>
			</element>
			<element id="435">
				<thickness>0.01,0.01,0.01,0.01,0.01,0.01,0.01,0.01</thickness>
			</element>
			<element id="436">
				<thickness>0.01,0.01,0.01,0.01,0.01,0.01,0.01,0.01</thickness>
			</element>
			<element id="437">
				<thickness>0.01,0.01,0.01,0.01,0.01,0.01,0.01,0.01</thickness>
			</element>
			<element id="438">
				<thickness>0.01,0.01,0.01,0.01,0.01,0.01,0.01,0.01</thickness>
			</element>
			<element id="439">
				<thickness>0.01,0.01,0.01,0.01,0.01,0.01,0.01,0.01</thickness>
			</element>
			<element id="440">
				<thickness>0.01,0.01,0.01,0.01,0.01,0.01,0.01,0.01</thickness>
			</element>
			<element id="441">
				<thickness>0.01,0.01,0.01,0.01,0.01,0.01,0.01,0.01</thickness>
			</element>
			<element id="442">
				<thickness>0.01,0.01,0.01,0.01,0.01,0.01,0.01,0.01</thickness>
			</element>
			<element id="443">
				<thickness>0.01,0.01,0.01,0.01,0.01,0.01,0.01,0.01</thickness>
			</element>
			<element id="444">
				<thickness>0.01,0.01,0.01,0.01,0.01,0.01,0.01,0.01</thickness>
			</element>
			<element id="445">
				<thickness>0.01,0.01,0.01,0.01,0.01,0.01,0.01,0.01</thickness>
			</element>
			<element id="446">
				<thickness>0.01,0.01,0.01,0.01,0.01,0.01,0.01,0.01</thickness>
			</element>
			<element id="447">
				<thickness>0.01,0.01,0.01,0.01,0.01,0.01,0.01,0.01</thickness>
			</element>
			<element id="448">
				<thickness>0.01,0.01,0.01,0.01,0.01,0.01,0.01,0.01</thickness>
			</element>
			<element id="449">
				<thickness>0.01,0.01,0.01,0.01,0.01,0.01,0.01,0.01</thickness>
			</element>
			<element id="450">
				<thickness>0.01,0.01,0.01,0.01,0.01,0.01,0.01,0.01</thickness>
			</element>
			<element id="451">
				<thickness>0.01,0.01,0.01,0.01,0.01,0.01,0.01,0.01</thickness>
			</element>
			<element id="452">
				<thickness>0.01,0.01,0.01,0.01,0.01,0.01,0.01,0.01</thickness>
			</element>
			<element id="453">
				<thickness>0.01,0.01,0.01,0.01,0.01,0.01,0.01,0.01</thickness>
			</element>
			<element id="454">
				<thickness>0.01,0.01,0.01,0.01,0.01,0.01,0.01,0.01</thickness>
			</element>
			<element id="455">
				<thickness>0.01,0.01,0.01,0.01,0.01,0.01,0.01,0.01</thickness>
			</element>
			<element id="456">
				<thickness>0.01,0.01,0.01,0.01,0.01,0.01,0.01,0.01</thickness>
			</element>
			<element id="457">
				<thickness>0.01,0.01,0.01,0.01,0.01,0.01,0.01,0.01</thickness>
			</element>
			<element id="458">
				<thickness>0.01,0.01,0.01,0.01,0.01,0.01,0.01,0.01</thickness>
			</element>
			<element id="459">
				<thickness>0.01,0.01,0.01,0.01,0.01,0.01,0.01,0.01</thickness>
			</element>
			<element id="460">
				<thickness>0.01,0.01,0.01,0.01,0.01,0.01,0.01,0.01</thickness>
			</element>
			<element id="461">
				<thickness>0.01,0.01,0.01,0.01,0.01,0.01,0.01,0.01</thickness>
			</element>
			<element id="462">
				<thickness>0.01,0.01,0.01,0.01,0.01,0.01,0.01,0.01</thickness>
			</element>
			<element id="463">
				<thickness>0.01,0.01,0.01,0.01,0.01,0.01,0.01,0.01</thickness>
			</element>
			<element id="464">
				<thickness>0.01,0.01,0.01,0.01,0.01,0.01,0.01,0.01</thickness>
			</element>
			<element id="465">
				<thickness>0.01,0.01,0.01,0.01,0.01,0.01,0.01,0.01</thickness>
			</element>
			<element id="466">
				<thickness>0.01,0.01,0.01,0.01,0.01,0.01,0.01,0.01</thickness>
			</element>
			<element id="467">
				<thickness>0.01,0.01,0.01,0.01,0.01,0.01,0.01,0.01</thickness>
			</element>
			<element id="468">
				<thickness>0.01,0.01,0.01,0.01,0.01,0.01,0.01,0.01</thickness>
			</element>
			<element id="469">
				<thickness>0.01,0.01,0.01,0.01,0.01,0.01,0.01,0.01</thickness>
			</element>
			<element id="470">
				<thickness>0.01,0.01,0.01,0.01,0.01,0.01,0.01,0.01</thickness>
			</element>
			<element id="471">
				<thickness>0.01,0.01,0.01,0.01,0.01,0.01,0.01,0.01</thickness>
			</element>
			<element id="472">
				<thickness>0.01,0.01,0.01,0.01,0.01,0.01,0.01,0.01</thickness>
			</element>
			<element id="473">
				<thickness>0.01,0.01,0.01,0.01,0.01,0.01,0.01,0.01</thickness>
			</element>
			<element id="474">
				<thickness>0.01,0.01,0.01,0.01,0.01,0.01,0.01,0.01</thickness>
			</element>
			<element id="475">
				<thickness>0.01,0.01,0.01,0.01,0.01,0.01,0.01,0.01</thickness>
			</element>
			<element id="476">
				<thickness>0.01,0.01,0.01,0.01,0.01,0.01,0.01,0.01</thickness>
			</element>
			<element id="477">
				<thickness>0.01,0.01,0.01,0.01,0.01,0.01,0.01,0.01</thickness>
			</element>
			<element id="478">
				<thickness>0.01,0.01,0.01,0.01,0.01,0.01,0.01,0.01</thickness>
			</element>
			<element id="479">
				<thickness>0.01,0.01,0.01,0.01,0.01,0.01,0.01,0.01</thickness>
			</element>
			<element id="480">
				<thickness>0.01,0.01,0.01,0.01,0.01,0.01,0.01,0.01</thickness>
			</element>
			<element id="481">
				<thickness>0.01,0.01,0.01,0.01,0.01,0.01,0.01,0.01</thickness>
			</element>
			<element id="482">
				<thickness>0.01,0.01,0.01,0.01,0.01,0.01,0.01,0.01</thickness>
			</element>
			<element id="483">
				<thickness>0.01,0.01,0.01,0.01,0.01,0.01,0.01,0.01</thickness>
			</element>
			<element id="484">
				<thickness>0.01,0.01,0.01,0.01,0.01,0.01,0.01,0.01</thickness>
			</element>
			<element id="485">
				<thickness>0.01,0.01,0.01,0.01,0.01,0.01,0.01,0.01</thickness>
			</element>
			<element id="486">
				<thickness>0.01,0.01,0.01,0.01,0.01,0.01,0.01,0.01</thickness>
			</element>
			<element id="487">
				<thickness>0.01,0.01,0.01,0.01,0.01,0.01,0.01,0.01</thickness>
			</element>
			<element id="488">
				<thickness>0.01,0.01,0.01,0.01,0.01,0.01,0.01,0.01</thickness>
			</element>
			<element id="489">
				<thickness>0.01,0.01,0.01,0.01,0.01,0.01,0.01,0.01</thickness>
			</element>
			<element id="490">
				<thickness>0.01,0.01,0.01,0.01,0.01,0.01,0.01,0.01</thickness>
			</element>
			<element id="491">
				<thickness>0.01,0.01,0.01,0.01,0.01,0.01,0.01,0.01</thickness>
			</element>
			<element id="492">
				<thickness>0.01,0.01,0.01,0.01,0.01,0.01,0.01,0.01</thickness>
			</element>
			<element id="493">
				<thickness>0.01,0.01,0.01,0.01,0.01,0.01,0.01,0.01</thickness>
			</element>
			<element id="494">
				<thickness>0.01,0.01,0.01,0.01,0.01,0.01,0.01,0.01</thickness>
			</element>
			<element id="495">
				<thickness>0.01,0.01,0.01,0.01,0.01,0.01,0.01,0.01</thickness>
			</element>
			<element id="496">
				<thickness>0.01,0.01,0.01,0.01,0.01,0.01,0.01,0.01</thickness>
			</element>
			<element id="497">
				<thickness>0.01,0.01,0.01,0.01,0.01,0.01,0.01,0.01</thickness>
			</element>
			<element id="498">
				<thickness>0.01,0.01,0.01,0.01,0.01,0.01,0.01,0.01</thickness>
			</element>
			<element id="499">
				<thickness>0.01,0.01,0.01,0.01,0.01,0.01,0.01,0.01</thickness>
			</element>
			<element id="500">
				<thickness>0.01,0.01,0.01,0.01,0.01,0.01,0.01,0.01</thickness>
			</element>
			<element id="501">
				<thickness>0.01,0.01,0.01,0.01,0.01,0.01,0.01,0.01</thickness>
			</element>
			<element id="502">
				<thickness>0.01,0.01,0.01,0.01,0.01,0.01,0.01,0.01</thickness>
			</element>
			<element id="503">
				<thickness>0.01,0.01,0.01,0.01,0.01,0.01,0.01,0.01</thickness>
			</element>
			<element id="504">
				<thickness>0.01,0.01,0.01,0.01,0.01,0.01,0.01,0.01</thickness>
			</element>
			<element id="505">
				<thickness>0.01,0.01,0.01,0.01,0.01,0.01,0.01,0.01</thickness>
			</element>
			<element id="506">
				<thickness>0.01,0.01,0.01,0.01,0.01,0.01,0.01,0.01</thickness>
			</element>
			<element id="507">
				<thickness>0.01,0.01,0.01,0.01,0.01,0.01,0.01,0.01</thickness>
			</element>
			<element id="508">
				<thickness>0.01,0.01,0.01,0.01,0.01,0.01,0.01,0.01</thickness>
			</element>
			<element id="509">
				<thickness>0.01,0.01,0.01,0.01,0.01,0.01,0.01,0.01</thickness>
			</element>
			<element id="510">
				<thickness>0.01,0.01,0.01,0.01,0.01,0.01,0.01,0.01</thickness>
			</element>
			<element id="511">
				<thickness>0.01,0.01,0.01,0.01,0.01,0.01,0.01,0.01</thickness>
			</element>
			<element id="512">
				<thickness>0.01,0.01,0.01,0.01,0.01,0.01,0.01,0.01</thickness>
			</element>
			<element id="513">
				<thickness>0.01,0.01,0.01,0.01,0.01,0.01,0.01,0.01</thickness>
			</element>
			<element id="514">
				<thickness>0.01,0.01,0.01,0.01,0.01,0.01,0.01,0.01</thickness>
			</element>
			<element id="515">
				<thickness>0.01,0.01,0.01,0.01,0.01,0.01,0.01,0.01</thickness>
			</element>
			<element id="516">
				<thickness>0.01,0.01,0.01,0.01,0.01,0.01,0.01,0.01</thickness>
			</element>
			<element id="517">
				<thickness>0.01,0.01,0.01,0.01,0.01,0.01,0.01,0.01</thickness>
			</element>
			<element id="518">
				<thickness>0.01,0.01,0.01,0.01,0.01,0.01,0.01,0.01</thickness>
			</element>
			<element id="519">
				<thickness>0.01,0.01,0.01,0.01,0.01,0.01,0.01,0.01</thickness>
			</element>
			<element id="520">
				<thickness>0.01,0.01,0.01,0.01,0.01,0.01,0.01,0.01</thickness>
			</element>
			<element id="521">
				<thickness>0.01,0.01,0.01,0.01,0.01,0.01,0.01,0.01</thickness>
			</element>
			<element id="522">
				<thickness>0.01,0.01,0.01,0.01,0.01,0.01,0.01,0.01</thickness>
			</element>
			<element id="523">
				<thickness>0.01,0.01,0.01,0.01,0.01,0.01,0.01,0.01</thickness>
			</element>
			<element id="524">
				<thickness>0.01,0.01,0.01,0.01,0.01,0.01,0.01,0.01</thickness>
			</element>
			<element id="525">
				<thickness>0.01,0.01,0.01,0.01,0.01,0.01,0.01,0.01</thickness>
			</element>
			<element id="526">
				<thickness>0.01,0.01,0.01,0.01,0.01,0.01,0.01,0.01</thickness>
			</element>
			<element id="527">
				<thickness>0.01,0.01,0.01,0.01,0.01,0.01,0.01,0.01</thickness>
			</element>
			<element id="528">
				<thickness>0.01,0.01,0.01,0.01,0.01,0.01,0.01,0.01</thickness>
			</element>
			<element id="529">
				<thickness>0.01,0.01,0.01,0.01,0.01,0.01,0.01,0.01</thickness>
			</element>
			<element id="530">
				<thickness>0.01,0.01,0.01,0.01,0.01,0.01,0.01,0.01</thickness>
			</element>
			<element id="531">
				<thickness>0.01,0.01,0.01,0.01,0.01,0.01,0.01,0.01</thickness>
			</element>
			<element id="532">
				<thickness>0.01,0.01,0.01,0.01,0.01,0.01,0.01,0.01</thickness>
			</element>
			<element id="533">
				<thickness>0.01,0.01,0.01,0.01,0.01,0.01,0.01,0.01</thickness>
			</element>
			<element id="534">
				<thickness>0.01,0.01,0.01,0.01,0.01,0.01,0.01,0.01</thickness>
			</element>
			<element id="535">
				<thickness>0.01,0.01,0.01,0.01,0.01,0.01,0.01,0.01</thickness>
			</element>
			<element id="536">
				<thickness>0.01,0.01,0.01,0.01,0.01,0.01,0.01,0.01</thickness>
			</element>
			<element id="537">
				<thickness>0.01,0.01,0.01,0.01,0.01,0.01,0.01,0.01</thickness>
			</element>
			<element id="538">
				<thickness>0.01,0.01,0.01,0.01,0.01,0.01,0.01,0.01</thickness>
			</element>
			<element id="539">
				<thickness>0.01,0.01,0.01,0.01,0.01,0.01,0.01,0.01</thickness>
			</element>
			<element id="540">
				<thickness>0.01,0.01,0.01,0.01,0.01,0.01,0.01,0.01</thickness>
			</element>
			<element id="541">
				<thickness>0.01,0.01,0.01,0.01,0.01,0.01,0.01,0.01</thickness>
			</element>
			<element id="542">
				<thickness>0.01,0.01,0.01,0.01,0.01,0.01,0.01,0.01</thickness>
			</element>
			<element id="543">
				<thickness>0.01,0.01,0.01,0.01,0.01,0.01,0.01,0.01</thickness>
			</element>
			<element id="544">
				<thickness>0.01,0.01,0.01,0.01,0.01,0.01,0.01,0.01</thickness>
			</element>
			<element id="545">
				<thickness>0.01,0.01,0.01,0.01,0.01,0.01,0.01,0.01</thickness>
			</element>
			<element id="546">
				<thickness>0.01,0.01,0.01,0.01,0.01,0.01,0.01,0.01</thickness>
			</element>
			<element id="547">
				<thickness>0.01,0.01,0.01,0.01,0.01,0.01,0.01,0.01</thickness>
			</element>
			<element id="548">
				<thickness>0.01,0.01,0.01,0.01,0.01,0.01,0.01,0.01</thickness>
			</element>
			<element id="549">
				<thickness>0.01,0.01,0.01,0.01,0.01,0.01,0.01,0.01</thickness>
			</element>
			<element id="550">
				<thickness>0.01,0.01,0.01,0.01,0.01,0.01,0.01,0.01</thickness>
			</element>
			<element id="551">
				<thickness>0.01,0.01,0.01,0.01,0.01,0.01,0.01,0.01</thickness>
			</element>
			<element id="552">
				<thickness>0.01,0.01,0.01,0.01,0.01,0.01,0.01,0.01</thickness>
			</element>
			<element id="553">
				<thickness>0.01,0.01,0.01,0.01,0.01,0.01,0.01,0.01</thickness>
			</element>
			<element id="554">
				<thickness>0.01,0.01,0.01,0.01,0.01,0.01,0.01,0.01</thickness>
			</element>
			<element id="555">
				<thickness>0.01,0.01,0.01,0.01,0.01,0.01,0.01,0.01</thickness>
			</element>
			<element id="556">
				<thickness>0.01,0.01,0.01,0.01,0.01,0.01,0.01,0.01</thickness>
			</element>
			<element id="557">
				<thickness>0.01,0.01,0.01,0.01,0.01,0.01,0.01,0.01</thickness>
			</element>
			<element id="558">
				<thickness>0.01,0.01,0.01,0.01,0.01,0.01,0.01,0.01</thickness>
			</element>
			<element id="559">
				<thickness>0.01,0.01,0.01,0.01,0.01,0.01,0.01,0.01</thickness>
			</element>
			<element id="560">
				<thickness>0.01,0.01,0.01,0.01,0.01,0.01,0.01,0.01</thickness>
			</element>
			<element id="561">
				<thickness>0.01,0.01,0.01,0.01,0.01,0.01,0.01,0.01</thickness>
			</element>
			<element id="562">
				<thickness>0.01,0.01,0.01,0.01,0.01,0.01,0.01,0.01</thickness>
			</element>
			<element id="563">
				<thickness>0.01,0.01,0.01,0.01,0.01,0.01,0.01,0.01</thickness>
			</element>
			<element id="564">
				<thickness>0.01,0.01,0.01,0.01,0.01,0.01,0.01,0.01</thickness>
			</element>
			<element id="565">
				<thickness>0.01,0.01,0.01,0.01,0.01,0.01,0.01,0.01</thickness>
			</element>
			<element id="566">
				<thickness>0.01,0.01,0.01,0.01,0.01,0.01,0.01,0.01</thickness>
			</element>
			<element id="567">
				<thickness>0.01,0.01,0.01,0.01,0.01,0.01,0.01,0.01</thickness>
			</element>
			<element id="568">
				<thickness>0.01,0.01,0.01,0.01,0.01,0.01,0.01,0.01</thickness>
			</element>
			<element id="569">
				<thickness>0.01,0.01,0.01,0.01,0.01,0.01,0.01,0.01</thickness>
			</element>
			<element id="570">
				<thickness>0.01,0.01,0.01,0.01,0.01,0.01,0.01,0.01</thickness>
			</element>
			<element id="571">
				<thickness>0.01,0.01,0.01,0.01,0.01,0.01,0.01,0.01</thickness>
			</element>
			<element id="572">
				<thickness>0.01,0.01,0.01,0.01,0.01,0.01,0.01,0.01</thickness>
			</element>
			<element id="573">
				<thickness>0.01,0.01,0.01,0.01,0.01,0.01,0.01,0.01</thickness>
			</element>
			<element id="574">
				<thickness>0.01,0.01,0.01,0.01,0.01,0.01,0.01,0.01</thickness>
			</element>
			<element id="575">
				<thickness>0.01,0.01,0.01,0.01,0.01,0.01,0.01,0.01</thickness>
			</element>
			<element id="576">
				<thickness>0.01,0.01,0.01,0.01,0.01,0.01,0.01,0.01</thickness>
			</element>
			<element id="577">
				<thickness>0.01,0.01,0.01,0.01,0.01,0.01,0.01,0.01</thickness>
			</element>
			<element id="578">
				<thickness>0.01,0.01,0.01,0.01,0.01,0.01,0.01,0.01</thickness>
			</element>
			<element id="579">
				<thickness>0.01,0.01,0.01,0.01,0.01,0.01,0.01,0.01</thickness>
			</element>
			<element id="580">
				<thickness>0.01,0.01,0.01,0.01,0.01,0.01,0.01,0.01</thickness>
			</element>
			<element id="581">
				<thickness>0.01,0.01,0.01,0.01,0.01,0.01,0.01,0.01</thickness>
			</element>
			<element id="582">
				<thickness>0.01,0.01,0.01,0.01,0.01,0.01,0.01,0.01</thickness>
			</element>
			<element id="583">
				<thickness>0.01,0.01,0.01,0.01,0.01,0.01,0.01,0.01</thickness>
			</element>
			<element id="584">
				<thickness>0.01,0.01,0.01,0.01,0.01,0.01,0.01,0.01</thickness>
			</element>
			<element id="585">
				<thickness>0.01,0.01,0.01,0.01,0.01,0.01,0.01,0.01</thickness>
			</element>
			<element id="586">
				<thickness>0.01,0.01,0.01,0.01,0.01,0.01,0.01,0.01</thickness>
			</element>
			<element id="587">
				<thickness>0.01,0.01,0.01,0.01,0.01,0.01,0.01,0.01</thickness>
			</element>
			<element id="588">
				<thickness>0.01,0.01,0.01,0.01,0.01,0.01,0.01,0.01</thickness>
			</element>
			<element id="589">
				<thickness>0.01,0.01,0.01,0.01,0.01,0.01,0.01,0.01</thickness>
			</element>
			<element id="590">
				<thickness>0.01,0.01,0.01,0.01,0.01,0.01,0.01,0.01</thickness>
			</element>
			<element id="591">
				<thickness>0.01,0.01,0.01,0.01,0.01,0.01,0.01,0.01</thickness>
			</element>
			<element id="592">
				<thickness>0.01,0.01,0.01,0.01,0.01,0.01,0.01,0.01</thickness>
			</element>
			<element id="593">
				<thickness>0.01,0.01,0.01,0.01,0.01,0.01,0.01,0.01</thickness>
			</element>
			<element id="594">
				<thickness>0.01,0.01,0.01,0.01,0.01,0.01,0.01,0.01</thickness>
			</element>
			<element id="595">
				<thickness>0.01,0.01,0.01,0.01,0.01,0.01,0.01,0.01</thickness>
			</element>
			<element id="596">
				<thickness>0.01,0.01,0.01,0.01,0.01,0.01,0.01,0.01</thickness>
			</element>
			<element id="597">
				<thickness>0.01,0.01,0.01,0.01,0.01,0.01,0.01,0.01</thickness>
			</element>
			<element id="598">
				<thickness>0.01,0.01,0.01,0.01,0.01,0.01,0.01,0.01</thickness>
			</element>
			<element id="599">
				<thickness>0.01,0.01,0.01,0.01,0.01,0.01,0.01,0.01</thickness>
			</element>
			<element id="600">
				<thickness>0.01,0.01,0.01,0.01,0.01,0.01,0.01,0.01</thickness>
			</element>
			<element id="601">
				<thickness>0.01,0.01,0.01,0.01,0.01,0.01,0.01,0.01</thickness>
			</element>
			<element id="602">
				<thickness>0.01,0.01,0.01,0.01,0.01,0.01,0.01,0.01</thickness>
			</element>
			<element id="603">
				<thickness>0.01,0.01,0.01,0.01,0.01,0.01,0.01,0.01</thickness>
			</element>
			<element id="604">
				<thickness>0.01,0.01,0.01,0.01,0.01,0.01,0.01,0.01</thickness>
			</element>
			<element id="605">
				<thickness>0.01,0.01,0.01,0.01,0.01,0.01,0.01,0.01</thickness>
			</element>
			<element id="606">
				<thickness>0.01,0.01,0.01,0.01,0.01,0.01,0.01,0.01</thickness>
			</element>
			<element id="607">
				<thickness>0.01,0.01,0.01,0.01,0.01,0.01,0.01,0.01</thickness>
			</element>
			<element id="608">
				<thickness>0.01,0.01,0.01,0.01,0.01,0.01,0.01,0.01</thickness>
			</element>
			<element id="609">
				<thickness>0.01,0.01,0.01,0.01,0.01,0.01,0.01,0.01</thickness>
			</element>
			<element id="610">
				<thickness>0.01,0.01,0.01,0.01,0.01,0.01,0.01,0.01</thickness>
			</element>
			<element id="611">
				<thickness>0.01,0.01,0.01,0.01,0.01,0.01,0.01,0.01</thickness>
			</element>
			<element id="612">
				<thickness>0.01,0.01,0.01,0.01,0.01,0.01,0.01,0.01</thickness>
			</element>
			<element id="613">
				<thickness>0.01,0.01,0.01,0.01,0.01,0.01,0.01,0.01</thickness>
			</element>
			<element id="614">
				<thickness>0.01,0.01,0.01,0.01,0.01,0.01,0.01,0.01</thickness>
			</element>
			<element id="615">
				<thickness>0.01,0.01,0.01,0.01,0.01,0.01,0.01,0.01</thickness>
			</element>
			<element id="616">
				<thickness>0.01,0.01,0.01,0.01,0.01,0.01,0.01,0.01</thickness>
			</element>
			<element id="617">
				<thickness>0.01,0.01,0.01,0.01,0.01,0.01,0.01,0.01</thickness>
			</element>
			<element id="618">
				<thickness>0.01,0.01,0.01,0.01,0.01,0.01,0.01,0.01</thickness>
			</element>
			<element id="619">
				<thickness>0.01,0.01,0.01,0.01,0.01,0.01,0.01,0.01</thickness>
			</element>
			<element id="620">
				<thickness>0.01,0.01,0.01,0.01,0.01,0.01,0.01,0.01</thickness>
			</element>
			<element id="621">
				<thickness>0.01,0.01,0.01,0.01,0.01,0.01,0.01,0.01</thickness>
			</element>
			<element id="622">
				<thickness>0.01,0.01,0.01,0.01,0.01,0.01,0.01,0.01</thickness>
			</element>
			<element id="623">
				<thickness>0.01,0.01,0.01,0.01,0.01,0.01,0.01,0.01</thickness>
			</element>
			<element id="624">
				<thickness>0.01,0.01,0.01,0.01,0.01,0.01,0.01,0.01</thickness>
			</element>
			<element id="625">
				<thickness>0.01,0.01,0.01,0.01,0.01,0.01,0.01,0.01</thickness>
			</element>
			<element id="626">
				<thickness>0.01,0.01,0.01,0.01,0.01,0.01,0.01,0.01</thickness>
			</element>
		</ElementData>
		<NodeSet name="patch1z">
			<node id="1"/>
			<node id="2"/>
			<node id="3"/>
			<node id="4"/>
			<node id="5"/>
			<node id="6"/>
			<node id="7"/>
			<node id="8"/>
			<node id="9"/>
			<node id="10"/>
			<node id="11"/>
			<node id="12"/>
			<node id="13"/>
			<node id="14"/>
			<node id="15"/>
			<node id="16"/>
			<node id="17"/>
			<node id="18"/>
			<node id="19"/>
			<node id="20"/>
<!-- ... 1956 like lines cut -->
		</NodeSet>
		<NodeSet name="patch1-x">
			<node id="1"/>
			<node id="2"/>
			<node id="3"/>
			<node id="4"/>
			<node id="5"/>
			<node id="6"/>
			<node id="7"/>
			<node id="8"/>
			<node id="9"/>
			<node id="10"/>
			<node id="11"/>
			<node id="12"/>
			<node id="13"/>
			<node id="14"/>
			<node id="15"/>
			<node id="16"/>
			<node id="17"/>
			<node id="18"/>
			<node id="19"/>
			<node id="20"/>
<!-- ... 31 like lines cut -->
		</NodeSet>
		<NodeSet name="patch1x">
			<node id="651"/>
			<node id="652"/>
			<node id="653"/>
			<node id="654"/>
			<node id="655"/>
			<node id="656"/>
			<node id="657"/>
			<node id="658"/>
			<node id="659"/>
			<node id="660"/>
			<node id="661"/>
			<node id="662"/>
			<node id="663"/>
			<node id="664"/>
			<node id="665"/>
			<node id="666"/>
			<node id="667"/>
			<node id="668"/>
			<node id="669"/>
			<node id="670"/>
<!-- ... 31 like lines cut -->
		</NodeSet>
		<NodeSet name="patch1-y">
			<node id="1"/>
			<node id="27"/>
			<node id="53"/>
			<node id="79"/>
			<node id="105"/>
			<node id="131"/>
			<node id="157"/>
			<node id="183"/>
			<node id="209"/>
			<node id="235"/>
			<node id="261"/>
			<node id="287"/>
			<node id="313"/>
			<node id="339"/>
			<node id="365"/>
			<node id="391"/>
			<node id="417"/>
			<node id="443"/>
			<node id="469"/>
			<node id="495"/>
<!-- ... 31 like lines cut -->
		</NodeSet>
		<NodeSet name="patch1y">
			<node id="26"/>
			<node id="52"/>
			<node id="78"/>
			<node id="104"/>
			<node id="130"/>
			<node id="156"/>
			<node id="182"/>
			<node id="208"/>
			<node id="234"/>
			<node id="260"/>
			<node id="286"/>
			<node id="312"/>
			<node id="338"/>
			<node id="364"/>
			<node id="390"/>
			<node id="416"/>
			<node id="442"/>
			<node id="468"/>
			<node id="494"/>
			<node id="520"/>
<!-- ... 31 like lines cut -->
		</NodeSet>
		<NodeSet name="patch2z">
			<node id="1977"/>
			<node id="1978"/>
			<node id="1979"/>
			<node id="1980"/>
			<node id="1981"/>
			<node id="1982"/>
			<node id="1983"/>
			<node id="1984"/>
		</NodeSet>
		<Surface name="patch1z">
			<quad8 id="1">1,27,28,2,677,728,679,678</quad8>
			<quad8 id="2">2,28,29,3,679,730,681,680</quad8>
			<quad8 id="3">3,29,30,4,681,732,683,682</quad8>
			<quad8 id="4">4,30,31,5,683,734,685,684</quad8>
			<quad8 id="5">5,31,32,6,685,736,687,686</quad8>
			<quad8 id="6">6,32,33,7,687,738,689,688</quad8>
			<quad8 id="7">7,33,34,8,689,740,691,690</quad8>
			<quad8 id="8">8,34,35,9,691,742,693,692</quad8>
			<quad8 id="9">9,35,36,10,693,744,695,694</quad8>
			<quad8 id="10">10,36,37,11,695,746,697,696</quad8>
			<quad8 id="11">11,37,38,12,697,748,699,698</quad8>
			<quad8 id="12">12,38,39,13,699,750,701,700</quad8>
			<quad8 id="13">13,39,40,14,701,752,703,702</quad8>
			<quad8 id="14">14,40,41,15,703,754,705,704</quad8>
			<quad8 id="15">15,41,42,16,705,756,707,706</quad8>
			<quad8 id="16">16,42,43,17,707,758,709,708</quad8>
			<quad8 id="17">17,43,44,18,709,760,711,710</quad8>
			<quad8 id="18">18,44,45,19,711,762,713,712</quad8>
			<quad8 id="19">19,45,46,20,713,764,715,714</quad8>
			<quad8 id="20">20,46,47,21,715,766,717,716</quad8>
<!-- ... 605 like lines cut -->
		</Surface>
		<Surface name="patch2z">
			<quad8 id="1">1977,1979,1980,1978,1981,1984,1983,1982</quad8>
		</Surface>
	</Geometry>
	<Boundary>
		<fix bc="xyz" set="patch1-x"/>
		<fix bc="xyz" set="patch1x"/>
		<fix bc="xyz" set="patch1-y"/>
		<fix bc="xyz" set="patch1y"/>
		<fix bc="uvw" set="patch1-x"/>
		<fix bc="uvw" set="patch1x"/>
		<fix bc="uvw" set="patch1-y"/>
		<fix bc="uvw" set="patch1y"/>
	</Boundary>
	<Contact>
		<contact type="sliding-tension-compression">
			<laugon>0</laugon>
			<tolerance>0.01</tolerance>
			<penalty>1000</penalty>
			<two_pass>1</two_pass>
			<auto_penalty>1</auto_penalty>
			<symmetric_stiffness>0</symmetric_stiffness>
			<search_radius>1</search_radius>
			<tension>1</tension>
			<search_tol>0.01</search_tol>
			<minaug>0</minaug>
			<maxaug>10</maxaug>
			<gaptol>0</gaptol>
			<seg_up>0</seg_up>
			<surface type="master" set="patch2z"/>
			<surface type="slave" set="patch1z"/>
		</contact>
	</Contact>
	<Constraints>
		<rigid_body mat = "2">
			<fixed bc="x" />
			<fixed bc="y" />
			<fixed bc="Rx" />
			<fixed bc="Ry" />
			<fixed bc="Rz" />
			<prescribed bc="z" lc="1">1</prescribed>
		</rigid_body>
	</Constraints>
	<LoadData>
		<loadcurve id="1" type="linear">
			<point>0,0</point>
			<point>0.1,-1.5</point>
			<point>1,-2</point>
		</loadcurve>
	</LoadData>
	<Output>
		<plotfile type="febio">
			<var type="displacement"/>
			<var type="stress"/>
			<var type="relative volume"/>
			<var type="shell director"/>
			<var type="shell strain"/>
			<var type="contact gap"/>
			<var type="contact pressure"/>
			<var type="relative volume"/>
		</plotfile>
		<logfile>
			<element_data data="sx">213</element_data>
		</logfile>
	</Output>
</febio_spec>
