<?xml version="1.0" encoding="ISO-8859-1"?>
<!--
Problem Description:
	Strip with shell constrained with rigid box is pulled off from a rigid surface using sticky contact.
	Rigid box is prescribed z displacement of 4 at t=1.
Main Features:
	quad4 shells
	sticky contact
Secondary Features:
Materials:
	neo-Hookean
Degrees of Freedom: 1203
Results
	Steps Completed: 15
	Equilibrium Iterations: 81
	Right Hand Evaluations: 101
	Siffness Reformations: 81
	Other:
		The maximum effective stress is 0.0374 units at time t=1.
Comments:
-->
<febio_spec version="2.0">
	<Module type="solid"/>
	<Control>
		<time_steps>100</time_steps>
		<step_size>0.01</step_size>
		<max_refs>15</max_refs>
		<max_ups>0</max_ups>
		<dtol>0.001</dtol>
		<etol>0.01</etol>
		<rtol>0</rtol>
		<lstol>0.9</lstol>
		<time_stepper>
			<dtmin>0.01</dtmin>
			<dtmax>0.1</dtmax>
			<max_retries>5</max_retries>
			<opt_iter>10</opt_iter>
		</time_stepper>
		<analysis type="static"/>
	</Control>
	<Globals>
		<Constants>
			<T>293</T>
			<R>0.008314</R>
			<Fc>0.0965</Fc>
		</Constants>
	</Globals>
	<Material>
		<material id="1" name="mat1" type="rigid body">
				<density>1</density>
			<center_of_mass>0,0,0</center_of_mass>
		</material>
		<material id="2" name="Material2" type="neo-Hookean">
			<density>1</density>
			<E>1</E>
			<v>0</v>		
		</material>
		<material id="3" name="Material2" type="neo-Hookean">
			<density>1</density>
			<E>1</E>
			<v>0</v>		
		</material>
		<material id="4" name="mat1" type="rigid body">
				<density>1</density>
			<center_of_mass>4,0,0.5</center_of_mass>
		</material>
	</Material>
	<Geometry>
		<Nodes>
			<node id="1"> -5.0000000e+00, -5.0000000e+00,  0.0000000e+00</node>
			<node id="2"> -5.0000000e+00,  5.0000000e+00,  0.0000000e+00</node>
			<node id="3">  5.0000000e+00, -5.0000000e+00,  0.0000000e+00</node>
			<node id="4">  5.0000000e+00,  5.0000000e+00,  0.0000000e+00</node>
			<node id="5"> -4.5000000e+00, -5.0000000e-01,  0.0000000e+00</node>
			<node id="6"> -4.5000000e+00, -5.0000000e-01,  2.5000000e-01</node>
			<node id="7"> -4.5000000e+00, -5.0000000e-01,  5.0000000e-01</node>
			<node id="8"> -4.5000000e+00, -1.6666667e-01,  0.0000000e+00</node>
			<node id="9"> -4.5000000e+00, -1.6666667e-01,  2.5000000e-01</node>
			<node id="10"> -4.5000000e+00, -1.6666667e-01,  5.0000000e-01</node>
			<node id="11"> -4.5000000e+00,  1.6666667e-01,  0.0000000e+00</node>
			<node id="12"> -4.5000000e+00,  1.6666667e-01,  2.5000000e-01</node>
			<node id="13"> -4.5000000e+00,  1.6666667e-01,  5.0000000e-01</node>
			<node id="14"> -4.5000000e+00,  5.0000000e-01,  0.0000000e+00</node>
			<node id="15"> -4.5000000e+00,  5.0000000e-01,  2.5000000e-01</node>
			<node id="16"> -4.5000000e+00,  5.0000000e-01,  5.0000000e-01</node>
			<node id="17"> -4.1400000e+00, -5.0000000e-01,  0.0000000e+00</node>
			<node id="18"> -4.1400000e+00, -5.0000000e-01,  2.5000000e-01</node>
			<node id="19"> -4.1400000e+00, -5.0000000e-01,  5.0000000e-01</node>
			<node id="20"> -4.1400000e+00, -1.6666667e-01,  0.0000000e+00</node>
<!-- ... 304 like lines cut -->
		</Nodes>
		<Elements type="quad4" mat="1" elset="Part1">
			<elem id="1">     1,     3,     4,     2</elem>
		</Elements>
		<Elements type="hex8" mat="3" elset="Part4">
			<elem id="2">     5,    17,    20,     8,     6,    18,    21,     9</elem>
			<elem id="3">     6,    18,    21,     9,     7,    19,    22,    10</elem>
			<elem id="4">     8,    20,    23,    11,     9,    21,    24,    12</elem>
			<elem id="5">     9,    21,    24,    12,    10,    22,    25,    13</elem>
			<elem id="6">    11,    23,    26,    14,    12,    24,    27,    15</elem>
			<elem id="7">    12,    24,    27,    15,    13,    25,    28,    16</elem>
			<elem id="8">    17,    29,    32,    20,    18,    30,    33,    21</elem>
			<elem id="9">    18,    30,    33,    21,    19,    31,    34,    22</elem>
			<elem id="10">    20,    32,    35,    23,    21,    33,    36,    24</elem>
			<elem id="11">    21,    33,    36,    24,    22,    34,    37,    25</elem>
			<elem id="12">    23,    35,    38,    26,    24,    36,    39,    27</elem>
			<elem id="13">    24,    36,    39,    27,    25,    37,    40,    28</elem>
			<elem id="14">    29,    41,    44,    32,    30,    42,    45,    33</elem>
			<elem id="15">    30,    42,    45,    33,    31,    43,    46,    34</elem>
			<elem id="16">    32,    44,    47,    35,    33,    45,    48,    36</elem>
			<elem id="17">    33,    45,    48,    36,    34,    46,    49,    37</elem>
			<elem id="18">    35,    47,    50,    38,    36,    48,    51,    39</elem>
			<elem id="19">    36,    48,    51,    39,    37,    49,    52,    40</elem>
			<elem id="20">    41,    53,    56,    44,    42,    54,    57,    45</elem>
			<elem id="21">    42,    54,    57,    45,    43,    55,    58,    46</elem>
<!-- ... 130 like lines cut -->
		</Elements>
		<Elements type="quad4" mat="2" elset="Part5">
			<elem id="152">    11,    14,    26,    23</elem>
			<elem id="153">     8,    11,    23,    20</elem>
			<elem id="154">     5,     8,    20,    17</elem>
			<elem id="155">    23,    26,    38,    35</elem>
			<elem id="156">    20,    23,    35,    32</elem>
			<elem id="157">    17,    20,    32,    29</elem>
			<elem id="158">    35,    38,    50,    47</elem>
			<elem id="159">    32,    35,    47,    44</elem>
			<elem id="160">    29,    32,    44,    41</elem>
			<elem id="161">    47,    50,    62,    59</elem>
			<elem id="162">    44,    47,    59,    56</elem>
			<elem id="163">    41,    44,    56,    53</elem>
			<elem id="164">    59,    62,    74,    71</elem>
			<elem id="165">    56,    59,    71,    68</elem>
			<elem id="166">    53,    56,    68,    65</elem>
			<elem id="167">    71,    74,    86,    83</elem>
			<elem id="168">    68,    71,    83,    80</elem>
			<elem id="169">    65,    68,    80,    77</elem>
			<elem id="170">    83,    86,    98,    95</elem>
			<elem id="171">    80,    83,    95,    92</elem>
<!-- ... 55 like lines cut -->
		</Elements>
		<Elements type="hex8" mat="4" elset="Part6">
			<elem id="227">   317,   321,   323,   319,   318,   322,   324,   320</elem>
		</Elements>
		<ElementData>
			<element id="1">
				<thickness>0.01,0.01,0.01,0.01</thickness>
			</element>
			<element id="152">
				<thickness>0.01,0.01,0.01,0.01</thickness>
			</element>
			<element id="153">
				<thickness>0.01,0.01,0.01,0.01</thickness>
			</element>
			<element id="154">
				<thickness>0.01,0.01,0.01,0.01</thickness>
			</element>
			<element id="155">
				<thickness>0.01,0.01,0.01,0.01</thickness>
			</element>
			<element id="156">
				<thickness>0.01,0.01,0.01,0.01</thickness>
			</element>
			<element id="157">
				<thickness>0.01,0.01,0.01,0.01</thickness>
			</element>
			<element id="158">
				<thickness>0.01,0.01,0.01,0.01</thickness>
			</element>
			<element id="159">
				<thickness>0.01,0.01,0.01,0.01</thickness>
			</element>
			<element id="160">
				<thickness>0.01,0.01,0.01,0.01</thickness>
			</element>
			<element id="161">
				<thickness>0.01,0.01,0.01,0.01</thickness>
			</element>
			<element id="162">
				<thickness>0.01,0.01,0.01,0.01</thickness>
			</element>
			<element id="163">
				<thickness>0.01,0.01,0.01,0.01</thickness>
			</element>
			<element id="164">
				<thickness>0.01,0.01,0.01,0.01</thickness>
			</element>
			<element id="165">
				<thickness>0.01,0.01,0.01,0.01</thickness>
			</element>
			<element id="166">
				<thickness>0.01,0.01,0.01,0.01</thickness>
			</element>
			<element id="167">
				<thickness>0.01,0.01,0.01,0.01</thickness>
			</element>
			<element id="168">
				<thickness>0.01,0.01,0.01,0.01</thickness>
			</element>
			<element id="169">
				<thickness>0.01,0.01,0.01,0.01</thickness>
			</element>
			<element id="170">
				<thickness>0.01,0.01,0.01,0.01</thickness>
			</element>
			<element id="171">
				<thickness>0.01,0.01,0.01,0.01</thickness>
			</element>
			<element id="172">
				<thickness>0.01,0.01,0.01,0.01</thickness>
			</element>
			<element id="173">
				<thickness>0.01,0.01,0.01,0.01</thickness>
			</element>
			<element id="174">
				<thickness>0.01,0.01,0.01,0.01</thickness>
			</element>
			<element id="175">
				<thickness>0.01,0.01,0.01,0.01</thickness>
			</element>
			<element id="176">
				<thickness>0.01,0.01,0.01,0.01</thickness>
			</element>
			<element id="177">
				<thickness>0.01,0.01,0.01,0.01</thickness>
			</element>
			<element id="178">
				<thickness>0.01,0.01,0.01,0.01</thickness>
			</element>
			<element id="179">
				<thickness>0.01,0.01,0.01,0.01</thickness>
			</element>
			<element id="180">
				<thickness>0.01,0.01,0.01,0.01</thickness>
			</element>
			<element id="181">
				<thickness>0.01,0.01,0.01,0.01</thickness>
			</element>
			<element id="182">
				<thickness>0.01,0.01,0.01,0.01</thickness>
			</element>
			<element id="183">
				<thickness>0.01,0.01,0.01,0.01</thickness>
			</element>
			<element id="184">
				<thickness>0.01,0.01,0.01,0.01</thickness>
			</element>
			<element id="185">
				<thickness>0.01,0.01,0.01,0.01</thickness>
			</element>
			<element id="186">
				<thickness>0.01,0.01,0.01,0.01</thickness>
			</element>
			<element id="187">
				<thickness>0.01,0.01,0.01,0.01</thickness>
			</element>
			<element id="188">
				<thickness>0.01,0.01,0.01,0.01</thickness>
			</element>
			<element id="189">
				<thickness>0.01,0.01,0.01,0.01</thickness>
			</element>
			<element id="190">
				<thickness>0.01,0.01,0.01,0.01</thickness>
			</element>
			<element id="191">
				<thickness>0.01,0.01,0.01,0.01</thickness>
			</element>
			<element id="192">
				<thickness>0.01,0.01,0.01,0.01</thickness>
			</element>
			<element id="193">
				<thickness>0.01,0.01,0.01,0.01</thickness>
			</element>
			<element id="194">
				<thickness>0.01,0.01,0.01,0.01</thickness>
			</element>
			<element id="195">
				<thickness>0.01,0.01,0.01,0.01</thickness>
			</element>
			<element id="196">
				<thickness>0.01,0.01,0.01,0.01</thickness>
			</element>
			<element id="197">
				<thickness>0.01,0.01,0.01,0.01</thickness>
			</element>
			<element id="198">
				<thickness>0.01,0.01,0.01,0.01</thickness>
			</element>
			<element id="199">
				<thickness>0.01,0.01,0.01,0.01</thickness>
			</element>
			<element id="200">
				<thickness>0.01,0.01,0.01,0.01</thickness>
			</element>
			<element id="201">
				<thickness>0.01,0.01,0.01,0.01</thickness>
			</element>
			<element id="202">
				<thickness>0.01,0.01,0.01,0.01</thickness>
			</element>
			<element id="203">
				<thickness>0.01,0.01,0.01,0.01</thickness>
			</element>
			<element id="204">
				<thickness>0.01,0.01,0.01,0.01</thickness>
			</element>
			<element id="205">
				<thickness>0.01,0.01,0.01,0.01</thickness>
			</element>
			<element id="206">
				<thickness>0.01,0.01,0.01,0.01</thickness>
			</element>
			<element id="207">
				<thickness>0.01,0.01,0.01,0.01</thickness>
			</element>
			<element id="208">
				<thickness>0.01,0.01,0.01,0.01</thickness>
			</element>
			<element id="209">
				<thickness>0.01,0.01,0.01,0.01</thickness>
			</element>
			<element id="210">
				<thickness>0.01,0.01,0.01,0.01</thickness>
			</element>
			<element id="211">
				<thickness>0.01,0.01,0.01,0.01</thickness>
			</element>
			<element id="212">
				<thickness>0.01,0.01,0.01,0.01</thickness>
			</element>
			<element id="213">
				<thickness>0.01,0.01,0.01,0.01</thickness>
			</element>
			<element id="214">
				<thickness>0.01,0.01,0.01,0.01</thickness>
			</element>
			<element id="215">
				<thickness>0.01,0.01,0.01,0.01</thickness>
			</element>
			<element id="216">
				<thickness>0.01,0.01,0.01,0.01</thickness>
			</element>
			<element id="217">
				<thickness>0.01,0.01,0.01,0.01</thickness>
			</element>
			<element id="218">
				<thickness>0.01,0.01,0.01,0.01</thickness>
			</element>
			<element id="219">
				<thickness>0.01,0.01,0.01,0.01</thickness>
			</element>
			<element id="220">
				<thickness>0.01,0.01,0.01,0.01</thickness>
			</element>
			<element id="221">
				<thickness>0.01,0.01,0.01,0.01</thickness>
			</element>
			<element id="222">
				<thickness>0.01,0.01,0.01,0.01</thickness>
			</element>
			<element id="223">
				<thickness>0.01,0.01,0.01,0.01</thickness>
			</element>
			<element id="224">
				<thickness>0.01,0.01,0.01,0.01</thickness>
			</element>
			<element id="225">
				<thickness>0.01,0.01,0.01,0.01</thickness>
			</element>
			<element id="226">
				<thickness>0.01,0.01,0.01,0.01</thickness>
			</element>
		</ElementData>
		<NodeSet name="patchz">
			<node id="1"/>
			<node id="2"/>
			<node id="3"/>
			<node id="4"/>
		</NodeSet>
		<NodeSet name="box1-z">
			<node id="5"/>
			<node id="8"/>
			<node id="11"/>
			<node id="14"/>
			<node id="17"/>
			<node id="20"/>
			<node id="23"/>
			<node id="26"/>
			<node id="29"/>
			<node id="32"/>
			<node id="35"/>
			<node id="38"/>
			<node id="41"/>
			<node id="44"/>
			<node id="47"/>
			<node id="50"/>
			<node id="53"/>
			<node id="56"/>
			<node id="59"/>
			<node id="62"/>
<!-- ... 84 like lines cut -->
		</NodeSet>
		<NodeSet name="box1z">
			<node id="7"/>
			<node id="10"/>
			<node id="13"/>
			<node id="16"/>
			<node id="19"/>
			<node id="22"/>
			<node id="25"/>
			<node id="28"/>
			<node id="31"/>
			<node id="34"/>
			<node id="37"/>
			<node id="40"/>
			<node id="43"/>
			<node id="46"/>
			<node id="49"/>
			<node id="52"/>
			<node id="55"/>
			<node id="58"/>
			<node id="61"/>
			<node id="64"/>
<!-- ... 84 like lines cut -->
		</NodeSet>
		<NodeSet name="box2-z">
			<node id="317"/>
			<node id="319"/>
			<node id="321"/>
			<node id="323"/>
		</NodeSet>
		<NodeSet name="box2z">
			<node id="318"/>
			<node id="320"/>
			<node id="322"/>
			<node id="324"/>
		</NodeSet>
		<NodeSet name="box1attach">
			<node id="271"/>
			<node id="274"/>
			<node id="277"/>
			<node id="280"/>
			<node id="283"/>
			<node id="286"/>
			<node id="289"/>
			<node id="292"/>
			<node id="295"/>
			<node id="298"/>
			<node id="301"/>
			<node id="304"/>
			<node id="307"/>
			<node id="310"/>
			<node id="313"/>
			<node id="316"/>
		</NodeSet>
		<Surface name="patchz">
				<quad4 id="1">     1,     3,     4,     2</quad4>
		</Surface>
		<Surface name="box1-z">
				<quad4 id="1">     8,    20,    17,     5</quad4>
				<quad4 id="2">    11,    23,    20,     8</quad4>
				<quad4 id="3">    14,    26,    23,    11</quad4>
				<quad4 id="4">    20,    32,    29,    17</quad4>
				<quad4 id="5">    23,    35,    32,    20</quad4>
				<quad4 id="6">    26,    38,    35,    23</quad4>
				<quad4 id="7">    32,    44,    41,    29</quad4>
				<quad4 id="8">    35,    47,    44,    32</quad4>
				<quad4 id="9">    38,    50,    47,    35</quad4>
				<quad4 id="10">    44,    56,    53,    41</quad4>
				<quad4 id="11">    47,    59,    56,    44</quad4>
				<quad4 id="12">    50,    62,    59,    47</quad4>
				<quad4 id="13">    56,    68,    65,    53</quad4>
				<quad4 id="14">    59,    71,    68,    56</quad4>
				<quad4 id="15">    62,    74,    71,    59</quad4>
				<quad4 id="16">    68,    80,    77,    65</quad4>
				<quad4 id="17">    71,    83,    80,    68</quad4>
				<quad4 id="18">    74,    86,    83,    71</quad4>
				<quad4 id="19">    80,    92,    89,    77</quad4>
				<quad4 id="20">    83,    95,    92,    80</quad4>
<!-- ... 55 like lines cut -->
		</Surface>
		<Surface name="box1z">
				<quad4 id="1">     7,    19,    22,    10</quad4>
				<quad4 id="2">    10,    22,    25,    13</quad4>
				<quad4 id="3">    13,    25,    28,    16</quad4>
				<quad4 id="4">    19,    31,    34,    22</quad4>
				<quad4 id="5">    22,    34,    37,    25</quad4>
				<quad4 id="6">    25,    37,    40,    28</quad4>
				<quad4 id="7">    31,    43,    46,    34</quad4>
				<quad4 id="8">    34,    46,    49,    37</quad4>
				<quad4 id="9">    37,    49,    52,    40</quad4>
				<quad4 id="10">    43,    55,    58,    46</quad4>
				<quad4 id="11">    46,    58,    61,    49</quad4>
				<quad4 id="12">    49,    61,    64,    52</quad4>
				<quad4 id="13">    55,    67,    70,    58</quad4>
				<quad4 id="14">    58,    70,    73,    61</quad4>
				<quad4 id="15">    61,    73,    76,    64</quad4>
				<quad4 id="16">    67,    79,    82,    70</quad4>
				<quad4 id="17">    70,    82,    85,    73</quad4>
				<quad4 id="18">    73,    85,    88,    76</quad4>
				<quad4 id="19">    79,    91,    94,    82</quad4>
				<quad4 id="20">    82,    94,    97,    85</quad4>
<!-- ... 55 like lines cut -->
		</Surface>
		<Surface name="box2-z">
				<quad4 id="1">   317,   319,   323,   321</quad4>
		</Surface>
	</Geometry>
	<Contact>
		<contact type="rigid">
			<node id="271" rb="4"></node>
			<node id="274" rb="4"></node>
			<node id="277" rb="4"></node>
			<node id="280" rb="4"></node>
			<node id="283" rb="4"></node>
			<node id="286" rb="4"></node>
			<node id="289" rb="4"></node>
			<node id="292" rb="4"></node>
			<node id="295" rb="4"></node>
			<node id="298" rb="4"></node>
			<node id="301" rb="4"></node>
			<node id="304" rb="4"></node>
			<node id="307" rb="4"></node>
			<node id="310" rb="4"></node>
			<node id="313" rb="4"></node>
			<node id="316" rb="4"></node>
		</contact>
		<contact type="sticky">
			<laugon>0</laugon>
			<tolerance>0.2</tolerance>
			<penalty>1</penalty>
			<minaug>0</minaug>
			<maxaug>10</maxaug>
			<snap_tol>0.01</snap_tol>
			<max_traction>0.01</max_traction>
			<surface type="master" set="patchz"/>
			<surface type="slave" set="box1-z"/>
		</contact>
	</Contact>
	<Constraints>
		<rigid_body mat = "1">
			<fixed bc="x" />
			<fixed bc="y" />
			<fixed bc="z" />
			<fixed bc="Rx" />
			<fixed bc="Ry" />
			<fixed bc="Rz" />
		</rigid_body>
		<rigid_body mat = "4">
			<fixed bc="y" />
			<fixed bc="Rx" />
			<fixed bc="Rz" />
			<prescribed bc="z" lc="1">4</prescribed>
		</rigid_body>
	</Constraints>
	<LoadData>
		<loadcurve id="1" type="linear">
			<point>0,0</point>
			<point>1,1</point>
		</loadcurve>
	</LoadData>
	<Output>
		<plotfile type="febio">
			<var type="displacement"/>
			<var type="stress"/>
			<var type="relative volume"/>
			<var type="shell director"/>
			<var type="shell strain"/>
			<var type="contact gap"/>
			<var type="contact pressure"/>
			<var type="relative volume"/>
		</plotfile>
		<logfile>
			<node_data data="z">4</node_data>
		</logfile>
	</Output>
</febio_spec>
