<?xml version="1.0" encoding="ISO-8859-1"?>
<!--
Problem Description:
Strip(20-node hex) with shell(quad8) constrained with rigid box is pulled off from 
a rigid surface using sticky contact.
Rigid box is prescribed z displacement of 4 at t=1.
Main Features:
	quad8 shells
	sticky contact
Secondary Features:
Materials:
	neo-Hookean
Degrees of Freedom: 4737
Results
	Steps Completed: 17
	Equilibrium Iterations: 135
	Right Hand Evaluations: 162
	Siffness Reformations: 138
	Other:
		The maximum effective stress is 0.022 units at time t=1.
Comments:
-->
<febio_spec version="2.0">
	<Module type="solid"/>
	<Control>
		<time_steps>100</time_steps>
		<step_size>0.01</step_size>
		<max_refs>15</max_refs>
		<max_ups>0</max_ups>
		<dtol>0.001</dtol>
		<etol>0.01</etol>
		<rtol>0</rtol>
		<lstol>0.9</lstol>
		<time_stepper>
			<dtmin>0.01</dtmin>
			<dtmax>0.1</dtmax>
			<max_retries>5</max_retries>
			<opt_iter>10</opt_iter>
		</time_stepper>
		<analysis type="static"/>
	</Control>
	<Globals>
		<Constants>
			<T>293</T>
			<R>0.008314</R>
			<Fc>0.0965</Fc>
		</Constants>
	</Globals>
	<Material>
		<material id="1" name="shell1" type="rigid body">
				<density>1</density>
		</material>
		<material id="2" name="shell2" type="neo-Hookean">
				<density>1</density>
				<E>1</E>
				<v>0.4</v>
		</material>
		<material id="3" name="box1" type="neo-Hookean">
				<density>1</density>
				<E>1</E>
				<v>0.4</v>
		</material>
		<material id="4" name="box2" type="rigid body">
				<density>1</density>
				<center_of_mass>4,0,0.5</center_of_mass>
		</material>
	</Material>
	<Geometry>
		<Nodes>
			<node id="1">-5.0000000e+00,-5.0000000e+00,0.0000000e+00</node>
			<node id="2">-5.0000000e+00,5.0000000e+00,0.0000000e+00</node>
			<node id="3">5.0000000e+00,-5.0000000e+00,0.0000000e+00</node>
			<node id="4">5.0000000e+00,5.0000000e+00,0.0000000e+00</node>
			<node id="5">0.0000000e+00,-5.0000000e+00,0.0000000e+00</node>
			<node id="6">-5.0000000e+00,0.0000000e+00,0.0000000e+00</node>
			<node id="7">0.0000000e+00,5.0000000e+00,0.0000000e+00</node>
			<node id="8">5.0000000e+00,0.0000000e+00,0.0000000e+00</node>
			<node id="9">-4.5000000e+00,-5.0000000e-01,0.0000000e+00</node>
			<node id="10">-4.5000000e+00,-5.0000000e-01,1.2500000e-01</node>
			<node id="11">-4.5000000e+00,-5.0000000e-01,2.5000000e-01</node>
			<node id="12">-4.5000000e+00,-5.0000000e-01,3.7500000e-01</node>
			<node id="13">-4.5000000e+00,-5.0000000e-01,5.0000000e-01</node>
			<node id="14">-4.5000000e+00,-3.3333333e-01,0.0000000e+00</node>
			<node id="15">-4.5000000e+00,-3.3333333e-01,2.5000000e-01</node>
			<node id="16">-4.5000000e+00,-3.3333333e-01,5.0000000e-01</node>
			<node id="17">-4.5000000e+00,-1.6666667e-01,0.0000000e+00</node>
			<node id="18">-4.5000000e+00,-1.6666667e-01,1.2500000e-01</node>
			<node id="19">-4.5000000e+00,-1.6666667e-01,2.5000000e-01</node>
			<node id="20">-4.5000000e+00,-1.6666667e-01,3.7500000e-01</node>
<!-- ... 1050 like lines cut -->
		</Nodes>
		<Elements type="quad8" mat="1" elset="Part3">
			<elem id="1">1,3,4,2,5,8,7,6</elem>
		</Elements>
		<Elements type="hex20" mat="3" elset="Part3">
			<elem id="2">9,50,58,17,11,52,60,19,38,55,41,14,39,56,42,15,10,51,59,18</elem>
			<elem id="3">11,52,60,19,13,54,62,21,39,56,42,15,40,57,43,16,12,53,61,20</elem>
			<elem id="4">17,58,66,25,19,60,68,27,41,63,44,22,42,64,45,23,18,59,67,26</elem>
			<elem id="5">19,60,68,27,21,62,70,29,42,64,45,23,43,65,46,24,20,61,69,28</elem>
			<elem id="6">25,66,74,33,27,68,76,35,44,71,47,30,45,72,48,31,26,67,75,34</elem>
			<elem id="7">27,68,76,35,29,70,78,37,45,72,48,31,46,73,49,32,28,69,77,36</elem>
			<elem id="8">50,91,99,58,52,93,101,60,79,96,82,55,80,97,83,56,51,92,100,59</elem>
			<elem id="9">52,93,101,60,54,95,103,62,80,97,83,56,81,98,84,57,53,94,102,61</elem>
			<elem id="10">58,99,107,66,60,101,109,68,82,104,85,63,83,105,86,64,59,100,108,67</elem>
			<elem id="11">60,101,109,68,62,103,111,70,83,105,86,64,84,106,87,65,61,102,110,69</elem>
			<elem id="12">66,107,115,74,68,109,117,76,85,112,88,71,86,113,89,72,67,108,116,75</elem>
			<elem id="13">68,109,117,76,70,111,119,78,86,113,89,72,87,114,90,73,69,110,118,77</elem>
			<elem id="14">91,132,140,99,93,134,142,101,120,137,123,96,121,138,124,97,92,133,141,100</elem>
			<elem id="15">93,134,142,101,95,136,144,103,121,138,124,97,122,139,125,98,94,135,143,102</elem>
			<elem id="16">99,140,148,107,101,142,150,109,123,145,126,104,124,146,127,105,100,141,149,108</elem>
			<elem id="17">101,142,150,109,103,144,152,111,124,146,127,105,125,147,128,106,102,143,151,110</elem>
			<elem id="18">107,148,156,115,109,150,158,117,126,153,129,112,127,154,130,113,108,149,157,116</elem>
			<elem id="19">109,150,158,117,111,152,160,119,127,154,130,113,128,155,131,114,110,151,159,118</elem>
			<elem id="20">132,173,181,140,134,175,183,142,161,178,164,137,162,179,165,138,133,174,182,141</elem>
			<elem id="21">134,175,183,142,136,177,185,144,162,179,165,138,163,180,166,139,135,176,184,143</elem>
<!-- ... 130 like lines cut -->
		</Elements>
		<Elements type="quad8" mat="2" elset="Part3">
			<elem id="152">25,33,74,66,30,47,71,44</elem>
			<elem id="153">17,25,66,58,22,44,63,41</elem>
			<elem id="154">9,17,58,50,14,41,55,38</elem>
			<elem id="155">66,74,115,107,71,88,112,85</elem>
			<elem id="156">58,66,107,99,63,85,104,82</elem>
			<elem id="157">50,58,99,91,55,82,96,79</elem>
			<elem id="158">107,115,156,148,112,129,153,126</elem>
			<elem id="159">99,107,148,140,104,126,145,123</elem>
			<elem id="160">91,99,140,132,96,123,137,120</elem>
			<elem id="161">148,156,197,189,153,170,194,167</elem>
			<elem id="162">140,148,189,181,145,167,186,164</elem>
			<elem id="163">132,140,181,173,137,164,178,161</elem>
			<elem id="164">189,197,238,230,194,211,235,208</elem>
			<elem id="165">181,189,230,222,186,208,227,205</elem>
			<elem id="166">173,181,222,214,178,205,219,202</elem>
			<elem id="167">230,238,279,271,235,252,276,249</elem>
			<elem id="168">222,230,271,263,227,249,268,246</elem>
			<elem id="169">214,222,263,255,219,246,260,243</elem>
			<elem id="170">271,279,320,312,276,293,317,290</elem>
			<elem id="171">263,271,312,304,268,290,309,287</elem>
<!-- ... 55 like lines cut -->
		</Elements>
		<Elements type="hex8" mat="4" elset="Part3">
			<elem id="227">1063,1067,1069,1065,1064,1068,1070,1066</elem>
		</Elements>
		<ElementData>
			<element id="1">
				<thickness>0.01,0.01,0.01,0.01,0.01,0.01,0.01,0.01</thickness>
			</element>
		</ElementData>
		<ElementData>
			<element id="152">
				<thickness>0.01,0.01,0.01,0.01,0.01,0.01,0.01,0.01</thickness>
			</element>
			<element id="153">
				<thickness>0.01,0.01,0.01,0.01,0.01,0.01,0.01,0.01</thickness>
			</element>
			<element id="154">
				<thickness>0.01,0.01,0.01,0.01,0.01,0.01,0.01,0.01</thickness>
			</element>
			<element id="155">
				<thickness>0.01,0.01,0.01,0.01,0.01,0.01,0.01,0.01</thickness>
			</element>
			<element id="156">
				<thickness>0.01,0.01,0.01,0.01,0.01,0.01,0.01,0.01</thickness>
			</element>
			<element id="157">
				<thickness>0.01,0.01,0.01,0.01,0.01,0.01,0.01,0.01</thickness>
			</element>
			<element id="158">
				<thickness>0.01,0.01,0.01,0.01,0.01,0.01,0.01,0.01</thickness>
			</element>
			<element id="159">
				<thickness>0.01,0.01,0.01,0.01,0.01,0.01,0.01,0.01</thickness>
			</element>
			<element id="160">
				<thickness>0.01,0.01,0.01,0.01,0.01,0.01,0.01,0.01</thickness>
			</element>
			<element id="161">
				<thickness>0.01,0.01,0.01,0.01,0.01,0.01,0.01,0.01</thickness>
			</element>
			<element id="162">
				<thickness>0.01,0.01,0.01,0.01,0.01,0.01,0.01,0.01</thickness>
			</element>
			<element id="163">
				<thickness>0.01,0.01,0.01,0.01,0.01,0.01,0.01,0.01</thickness>
			</element>
			<element id="164">
				<thickness>0.01,0.01,0.01,0.01,0.01,0.01,0.01,0.01</thickness>
			</element>
			<element id="165">
				<thickness>0.01,0.01,0.01,0.01,0.01,0.01,0.01,0.01</thickness>
			</element>
			<element id="166">
				<thickness>0.01,0.01,0.01,0.01,0.01,0.01,0.01,0.01</thickness>
			</element>
			<element id="167">
				<thickness>0.01,0.01,0.01,0.01,0.01,0.01,0.01,0.01</thickness>
			</element>
			<element id="168">
				<thickness>0.01,0.01,0.01,0.01,0.01,0.01,0.01,0.01</thickness>
			</element>
			<element id="169">
				<thickness>0.01,0.01,0.01,0.01,0.01,0.01,0.01,0.01</thickness>
			</element>
			<element id="170">
				<thickness>0.01,0.01,0.01,0.01,0.01,0.01,0.01,0.01</thickness>
			</element>
			<element id="171">
				<thickness>0.01,0.01,0.01,0.01,0.01,0.01,0.01,0.01</thickness>
			</element>
			<element id="172">
				<thickness>0.01,0.01,0.01,0.01,0.01,0.01,0.01,0.01</thickness>
			</element>
			<element id="173">
				<thickness>0.01,0.01,0.01,0.01,0.01,0.01,0.01,0.01</thickness>
			</element>
			<element id="174">
				<thickness>0.01,0.01,0.01,0.01,0.01,0.01,0.01,0.01</thickness>
			</element>
			<element id="175">
				<thickness>0.01,0.01,0.01,0.01,0.01,0.01,0.01,0.01</thickness>
			</element>
			<element id="176">
				<thickness>0.01,0.01,0.01,0.01,0.01,0.01,0.01,0.01</thickness>
			</element>
			<element id="177">
				<thickness>0.01,0.01,0.01,0.01,0.01,0.01,0.01,0.01</thickness>
			</element>
			<element id="178">
				<thickness>0.01,0.01,0.01,0.01,0.01,0.01,0.01,0.01</thickness>
			</element>
			<element id="179">
				<thickness>0.01,0.01,0.01,0.01,0.01,0.01,0.01,0.01</thickness>
			</element>
			<element id="180">
				<thickness>0.01,0.01,0.01,0.01,0.01,0.01,0.01,0.01</thickness>
			</element>
			<element id="181">
				<thickness>0.01,0.01,0.01,0.01,0.01,0.01,0.01,0.01</thickness>
			</element>
			<element id="182">
				<thickness>0.01,0.01,0.01,0.01,0.01,0.01,0.01,0.01</thickness>
			</element>
			<element id="183">
				<thickness>0.01,0.01,0.01,0.01,0.01,0.01,0.01,0.01</thickness>
			</element>
			<element id="184">
				<thickness>0.01,0.01,0.01,0.01,0.01,0.01,0.01,0.01</thickness>
			</element>
			<element id="185">
				<thickness>0.01,0.01,0.01,0.01,0.01,0.01,0.01,0.01</thickness>
			</element>
			<element id="186">
				<thickness>0.01,0.01,0.01,0.01,0.01,0.01,0.01,0.01</thickness>
			</element>
			<element id="187">
				<thickness>0.01,0.01,0.01,0.01,0.01,0.01,0.01,0.01</thickness>
			</element>
			<element id="188">
				<thickness>0.01,0.01,0.01,0.01,0.01,0.01,0.01,0.01</thickness>
			</element>
			<element id="189">
				<thickness>0.01,0.01,0.01,0.01,0.01,0.01,0.01,0.01</thickness>
			</element>
			<element id="190">
				<thickness>0.01,0.01,0.01,0.01,0.01,0.01,0.01,0.01</thickness>
			</element>
			<element id="191">
				<thickness>0.01,0.01,0.01,0.01,0.01,0.01,0.01,0.01</thickness>
			</element>
			<element id="192">
				<thickness>0.01,0.01,0.01,0.01,0.01,0.01,0.01,0.01</thickness>
			</element>
			<element id="193">
				<thickness>0.01,0.01,0.01,0.01,0.01,0.01,0.01,0.01</thickness>
			</element>
			<element id="194">
				<thickness>0.01,0.01,0.01,0.01,0.01,0.01,0.01,0.01</thickness>
			</element>
			<element id="195">
				<thickness>0.01,0.01,0.01,0.01,0.01,0.01,0.01,0.01</thickness>
			</element>
			<element id="196">
				<thickness>0.01,0.01,0.01,0.01,0.01,0.01,0.01,0.01</thickness>
			</element>
			<element id="197">
				<thickness>0.01,0.01,0.01,0.01,0.01,0.01,0.01,0.01</thickness>
			</element>
			<element id="198">
				<thickness>0.01,0.01,0.01,0.01,0.01,0.01,0.01,0.01</thickness>
			</element>
			<element id="199">
				<thickness>0.01,0.01,0.01,0.01,0.01,0.01,0.01,0.01</thickness>
			</element>
			<element id="200">
				<thickness>0.01,0.01,0.01,0.01,0.01,0.01,0.01,0.01</thickness>
			</element>
			<element id="201">
				<thickness>0.01,0.01,0.01,0.01,0.01,0.01,0.01,0.01</thickness>
			</element>
			<element id="202">
				<thickness>0.01,0.01,0.01,0.01,0.01,0.01,0.01,0.01</thickness>
			</element>
			<element id="203">
				<thickness>0.01,0.01,0.01,0.01,0.01,0.01,0.01,0.01</thickness>
			</element>
			<element id="204">
				<thickness>0.01,0.01,0.01,0.01,0.01,0.01,0.01,0.01</thickness>
			</element>
			<element id="205">
				<thickness>0.01,0.01,0.01,0.01,0.01,0.01,0.01,0.01</thickness>
			</element>
			<element id="206">
				<thickness>0.01,0.01,0.01,0.01,0.01,0.01,0.01,0.01</thickness>
			</element>
			<element id="207">
				<thickness>0.01,0.01,0.01,0.01,0.01,0.01,0.01,0.01</thickness>
			</element>
			<element id="208">
				<thickness>0.01,0.01,0.01,0.01,0.01,0.01,0.01,0.01</thickness>
			</element>
			<element id="209">
				<thickness>0.01,0.01,0.01,0.01,0.01,0.01,0.01,0.01</thickness>
			</element>
			<element id="210">
				<thickness>0.01,0.01,0.01,0.01,0.01,0.01,0.01,0.01</thickness>
			</element>
			<element id="211">
				<thickness>0.01,0.01,0.01,0.01,0.01,0.01,0.01,0.01</thickness>
			</element>
			<element id="212">
				<thickness>0.01,0.01,0.01,0.01,0.01,0.01,0.01,0.01</thickness>
			</element>
			<element id="213">
				<thickness>0.01,0.01,0.01,0.01,0.01,0.01,0.01,0.01</thickness>
			</element>
			<element id="214">
				<thickness>0.01,0.01,0.01,0.01,0.01,0.01,0.01,0.01</thickness>
			</element>
			<element id="215">
				<thickness>0.01,0.01,0.01,0.01,0.01,0.01,0.01,0.01</thickness>
			</element>
			<element id="216">
				<thickness>0.01,0.01,0.01,0.01,0.01,0.01,0.01,0.01</thickness>
			</element>
			<element id="217">
				<thickness>0.01,0.01,0.01,0.01,0.01,0.01,0.01,0.01</thickness>
			</element>
			<element id="218">
				<thickness>0.01,0.01,0.01,0.01,0.01,0.01,0.01,0.01</thickness>
			</element>
			<element id="219">
				<thickness>0.01,0.01,0.01,0.01,0.01,0.01,0.01,0.01</thickness>
			</element>
			<element id="220">
				<thickness>0.01,0.01,0.01,0.01,0.01,0.01,0.01,0.01</thickness>
			</element>
			<element id="221">
				<thickness>0.01,0.01,0.01,0.01,0.01,0.01,0.01,0.01</thickness>
			</element>
			<element id="222">
				<thickness>0.01,0.01,0.01,0.01,0.01,0.01,0.01,0.01</thickness>
			</element>
			<element id="223">
				<thickness>0.01,0.01,0.01,0.01,0.01,0.01,0.01,0.01</thickness>
			</element>
			<element id="224">
				<thickness>0.01,0.01,0.01,0.01,0.01,0.01,0.01,0.01</thickness>
			</element>
			<element id="225">
				<thickness>0.01,0.01,0.01,0.01,0.01,0.01,0.01,0.01</thickness>
			</element>
			<element id="226">
				<thickness>0.01,0.01,0.01,0.01,0.01,0.01,0.01,0.01</thickness>
			</element>
		</ElementData>
		<NodeSet name="patchz">
			<node id="1"/>
			<node id="2"/>
			<node id="3"/>
			<node id="4"/>
			<node id="5"/>
			<node id="6"/>
			<node id="7"/>
			<node id="8"/>
		</NodeSet>
		<NodeSet name="box1-z">
			<node id="9"/>
			<node id="14"/>
			<node id="17"/>
			<node id="22"/>
			<node id="25"/>
			<node id="30"/>
			<node id="33"/>
			<node id="38"/>
			<node id="41"/>
			<node id="44"/>
			<node id="47"/>
			<node id="50"/>
			<node id="55"/>
			<node id="58"/>
			<node id="63"/>
			<node id="66"/>
			<node id="71"/>
			<node id="74"/>
			<node id="79"/>
			<node id="82"/>
<!-- ... 262 like lines cut -->
		</NodeSet>
		<NodeSet name="box1z">
			<node id="13"/>
			<node id="16"/>
			<node id="21"/>
			<node id="24"/>
			<node id="29"/>
			<node id="32"/>
			<node id="37"/>
			<node id="40"/>
			<node id="43"/>
			<node id="46"/>
			<node id="49"/>
			<node id="54"/>
			<node id="57"/>
			<node id="62"/>
			<node id="65"/>
			<node id="70"/>
			<node id="73"/>
			<node id="78"/>
			<node id="81"/>
			<node id="84"/>
<!-- ... 262 like lines cut -->
		</NodeSet>
		<NodeSet name="box1_attach">
			<node id="915"/>
			<node id="918"/>
			<node id="923"/>
			<node id="926"/>
			<node id="931"/>
			<node id="934"/>
			<node id="939"/>
			<node id="942"/>
			<node id="945"/>
			<node id="948"/>
			<node id="951"/>
			<node id="956"/>
			<node id="959"/>
			<node id="964"/>
			<node id="967"/>
			<node id="972"/>
			<node id="975"/>
			<node id="980"/>
			<node id="983"/>
			<node id="986"/>
<!-- ... 20 like lines cut -->
		</NodeSet>
		<Surface name="patchz">
			<quad8 id="1">1,3,4,2,5,8,7,6</quad8>
		</Surface>
		<Surface name="box1-z">
			<quad8 id="1">17,58,50,9,41,55,38,14</quad8>
			<quad8 id="2">25,66,58,17,44,63,41,22</quad8>
			<quad8 id="3">33,74,66,25,47,71,44,30</quad8>
			<quad8 id="4">58,99,91,50,82,96,79,55</quad8>
			<quad8 id="5">66,107,99,58,85,104,82,63</quad8>
			<quad8 id="6">74,115,107,66,88,112,85,71</quad8>
			<quad8 id="7">99,140,132,91,123,137,120,96</quad8>
			<quad8 id="8">107,148,140,99,126,145,123,104</quad8>
			<quad8 id="9">115,156,148,107,129,153,126,112</quad8>
			<quad8 id="10">140,181,173,132,164,178,161,137</quad8>
			<quad8 id="11">148,189,181,140,167,186,164,145</quad8>
			<quad8 id="12">156,197,189,148,170,194,167,153</quad8>
			<quad8 id="13">181,222,214,173,205,219,202,178</quad8>
			<quad8 id="14">189,230,222,181,208,227,205,186</quad8>
			<quad8 id="15">197,238,230,189,211,235,208,194</quad8>
			<quad8 id="16">222,263,255,214,246,260,243,219</quad8>
			<quad8 id="17">230,271,263,222,249,268,246,227</quad8>
			<quad8 id="18">238,279,271,230,252,276,249,235</quad8>
			<quad8 id="19">263,304,296,255,287,301,284,260</quad8>
			<quad8 id="20">271,312,304,263,290,309,287,268</quad8>
<!-- ... 55 like lines cut -->
		</Surface>
	</Geometry>
	<Contact>
		<contact type="rigid">
			<node id="915" rb="4"></node>
			<node id="918" rb="4"></node>
			<node id="923" rb="4"></node>
			<node id="926" rb="4"></node>
			<node id="931" rb="4"></node>
			<node id="934" rb="4"></node>
			<node id="939" rb="4"></node>
			<node id="942" rb="4"></node>
			<node id="945" rb="4"></node>
			<node id="948" rb="4"></node>
			<node id="951" rb="4"></node>
			<node id="956" rb="4"></node>
			<node id="959" rb="4"></node>
			<node id="964" rb="4"></node>
			<node id="967" rb="4"></node>
			<node id="972" rb="4"></node>
			<node id="975" rb="4"></node>
			<node id="980" rb="4"></node>
			<node id="983" rb="4"></node>
			<node id="986" rb="4"></node>
<!-- ... 20 like lines cut -->
		</contact>
		<contact type="sticky">
			<laugon>0</laugon>
			<tolerance>0.2</tolerance>
			<penalty>1</penalty>
			<minaug>0</minaug>
			<maxaug>10</maxaug>
			<snap_tol>0.01</snap_tol>
			<max_traction>0.01</max_traction>
			<surface type="master" set="patchz"/>
			<surface type="slave" set="box1-z"/>
		</contact>
	</Contact>
	<Constraints>
		<rigid_body mat = "1">
			<fixed bc="x" />
			<fixed bc="y" />
			<fixed bc="z" />
			<fixed bc="Rx" />
			<fixed bc="Ry" />
			<fixed bc="Rz" />
		</rigid_body>
		<rigid_body mat = "4">
			<fixed bc="y" />
			<fixed bc="Rx" />
			<fixed bc="Rz" />
			<prescribed bc="z" lc="1">4</prescribed>
		</rigid_body>
	</Constraints>
	<LoadData>
		<loadcurve id="1" type="linear">
			<point>0,0</point>
			<point>1,1</point>
		</loadcurve>
	</LoadData>
	<Output>
		<plotfile type="febio">
			<var type="displacement"/>
			<var type="stress"/>
			<var type="relative volume"/>
			<var type="shell director"/>
			<var type="shell strain"/>
			<var type="contact gap"/>
			<var type="contact pressure"/>
			<var type="relative volume"/>
		</plotfile>
		<logfile>
			<node_data data="z">4</node_data>
		</logfile>
	</Output>
</febio_spec>
