<?xml version="1.0" encoding="ISO-8859-1"?>
<!--
Problem Description:
	Shell(quad8) strip with continuous fiber distribution of 3D von-Mises distribution where distribution is 
	heavily along x direction.
	Left edge with rigid constaint is fixed and right edge with rigid constraint is 
	prescribed x displacement of 2 at t=1.
Main Features:
	quad8 shells
	von-Mises-3d with b=3
Secondary Features:
Materials:
	solid mixture (neo-Hookean,continuous fiber distribution)
Degrees of Freedom: 1288
Results
	Steps Completed: 15
	Equilibrium Iterations: 48
	Right Hand Evaluations: 63
	Siffness Reformations: 48
	Other:
		The maximum effective stress is 124 units at time t=1.
Comments:
-->
<febio_spec version="2.0">
	<Module type="solid"/>
	<Control>
		<time_steps>100</time_steps>
		<step_size>0.01</step_size>
		<max_refs>15</max_refs>
		<max_ups>0</max_ups>
		<dtol>0.001</dtol>
		<etol>0.01</etol>
		<rtol>0</rtol>
		<lstol>0.9</lstol>
		<time_stepper>
			<dtmin>0.001</dtmin>
			<dtmax>0.1</dtmax>
			<max_retries>5</max_retries>
			<opt_iter>10</opt_iter>
			<aggressiveness>1</aggressiveness>
		</time_stepper>
		<analysis type="static"/>
	</Control>
	<Globals>
		<Constants>
			<T>293</T>
			<R>0.008314</R>
			<Fc>0.0965</Fc>
		</Constants>
	</Globals>
	<Material>
		<material id="1" name="mat1" type="solid mixture">
		<mat_axis type="vector">
				<a>1,0,0</a>
				<d>0,1,0</d>
		</mat_axis>
		<solid type="neo-Hookean">
				<density>1</density>
				<E>1</E>
				<v>0.3</v>
		</solid>
		<solid type="continuous fiber distribution">
				<fibers type="fiber-exponential-power-law">
				<alpha>20</alpha>
				<beta>2</beta>
				<ksi>5</ksi>
				<mu>0</mu>
				</fibers>
				<distribution type="von-Mises-3d">
				<b>3</b>
				</distribution>
				<scheme type="fibers-3d-gkt">
				<nph>11</nph>
				<nth>31</nth>
				</scheme>
		</solid>
		</material>
		<material id="2" name="shell1" type="rigid body">
				<density>1</density>
		</material>
		<material id="3" name="shell1" type="rigid body">
				<density>1</density>
		</material>
	</Material>
	<Geometry>
		<Nodes>
			<node id="1">-5.0000000e+00,-1.5000000e+00,0.0000000e+00</node>
			<node id="2">-5.0000000e+00,-7.5000000e-01,0.0000000e+00</node>
			<node id="3">-5.0000000e+00,0.0000000e+00,0.0000000e+00</node>
			<node id="4">-5.0000000e+00,7.5000000e-01,0.0000000e+00</node>
			<node id="5">-5.0000000e+00,1.5000000e+00,0.0000000e+00</node>
			<node id="6">-4.0000000e+00,-1.5000000e+00,0.0000000e+00</node>
			<node id="7">-4.0000000e+00,-7.5000000e-01,0.0000000e+00</node>
			<node id="8">-4.0000000e+00,0.0000000e+00,0.0000000e+00</node>
			<node id="9">-4.0000000e+00,7.5000000e-01,0.0000000e+00</node>
			<node id="10">-4.0000000e+00,1.5000000e+00,0.0000000e+00</node>
			<node id="11">-3.0000000e+00,-1.5000000e+00,0.0000000e+00</node>
			<node id="12">-3.0000000e+00,-7.5000000e-01,0.0000000e+00</node>
			<node id="13">-3.0000000e+00,0.0000000e+00,0.0000000e+00</node>
			<node id="14">-3.0000000e+00,7.5000000e-01,0.0000000e+00</node>
			<node id="15">-3.0000000e+00,1.5000000e+00,0.0000000e+00</node>
			<node id="16">-2.0000000e+00,-1.5000000e+00,0.0000000e+00</node>
			<node id="17">-2.0000000e+00,-7.5000000e-01,0.0000000e+00</node>
			<node id="18">-2.0000000e+00,0.0000000e+00,0.0000000e+00</node>
			<node id="19">-2.0000000e+00,7.5000000e-01,0.0000000e+00</node>
			<node id="20">-2.0000000e+00,1.5000000e+00,0.0000000e+00</node>
<!-- ... 129 like lines cut -->
		</Nodes>
		<Elements type="quad8" mat="1" elset="Part3">
			<elem id="1">1,6,7,2,56,65,58,57</elem>
			<elem id="2">2,7,8,3,58,67,60,59</elem>
			<elem id="3">3,8,9,4,60,69,62,61</elem>
			<elem id="4">4,9,10,5,62,71,64,63</elem>
			<elem id="5">6,11,12,7,66,74,68,65</elem>
			<elem id="6">7,12,13,8,68,76,70,67</elem>
			<elem id="7">8,13,14,9,70,78,72,69</elem>
			<elem id="8">9,14,15,10,72,80,73,71</elem>
			<elem id="9">11,16,17,12,75,83,77,74</elem>
			<elem id="10">12,17,18,13,77,85,79,76</elem>
			<elem id="11">13,18,19,14,79,87,81,78</elem>
			<elem id="12">14,19,20,15,81,89,82,80</elem>
			<elem id="13">16,21,22,17,84,92,86,83</elem>
			<elem id="14">17,22,23,18,86,94,88,85</elem>
			<elem id="15">18,23,24,19,88,96,90,87</elem>
			<elem id="16">19,24,25,20,90,98,91,89</elem>
			<elem id="17">21,26,27,22,93,101,95,92</elem>
			<elem id="18">22,27,28,23,95,103,97,94</elem>
			<elem id="19">23,28,29,24,97,105,99,96</elem>
			<elem id="20">24,29,30,25,99,107,100,98</elem>
<!-- ... 20 like lines cut -->
		</Elements>
		<ElementData>
			<element id="1">
				<thickness>0.01,0.01,0.01,0.01,0.01,0.01,0.01,0.01</thickness>
			</element>
			<element id="2">
				<thickness>0.01,0.01,0.01,0.01,0.01,0.01,0.01,0.01</thickness>
			</element>
			<element id="3">
				<thickness>0.01,0.01,0.01,0.01,0.01,0.01,0.01,0.01</thickness>
			</element>
			<element id="4">
				<thickness>0.01,0.01,0.01,0.01,0.01,0.01,0.01,0.01</thickness>
			</element>
			<element id="5">
				<thickness>0.01,0.01,0.01,0.01,0.01,0.01,0.01,0.01</thickness>
			</element>
			<element id="6">
				<thickness>0.01,0.01,0.01,0.01,0.01,0.01,0.01,0.01</thickness>
			</element>
			<element id="7">
				<thickness>0.01,0.01,0.01,0.01,0.01,0.01,0.01,0.01</thickness>
			</element>
			<element id="8">
				<thickness>0.01,0.01,0.01,0.01,0.01,0.01,0.01,0.01</thickness>
			</element>
			<element id="9">
				<thickness>0.01,0.01,0.01,0.01,0.01,0.01,0.01,0.01</thickness>
			</element>
			<element id="10">
				<thickness>0.01,0.01,0.01,0.01,0.01,0.01,0.01,0.01</thickness>
			</element>
			<element id="11">
				<thickness>0.01,0.01,0.01,0.01,0.01,0.01,0.01,0.01</thickness>
			</element>
			<element id="12">
				<thickness>0.01,0.01,0.01,0.01,0.01,0.01,0.01,0.01</thickness>
			</element>
			<element id="13">
				<thickness>0.01,0.01,0.01,0.01,0.01,0.01,0.01,0.01</thickness>
			</element>
			<element id="14">
				<thickness>0.01,0.01,0.01,0.01,0.01,0.01,0.01,0.01</thickness>
			</element>
			<element id="15">
				<thickness>0.01,0.01,0.01,0.01,0.01,0.01,0.01,0.01</thickness>
			</element>
			<element id="16">
				<thickness>0.01,0.01,0.01,0.01,0.01,0.01,0.01,0.01</thickness>
			</element>
			<element id="17">
				<thickness>0.01,0.01,0.01,0.01,0.01,0.01,0.01,0.01</thickness>
			</element>
			<element id="18">
				<thickness>0.01,0.01,0.01,0.01,0.01,0.01,0.01,0.01</thickness>
			</element>
			<element id="19">
				<thickness>0.01,0.01,0.01,0.01,0.01,0.01,0.01,0.01</thickness>
			</element>
			<element id="20">
				<thickness>0.01,0.01,0.01,0.01,0.01,0.01,0.01,0.01</thickness>
			</element>
			<element id="21">
				<thickness>0.01,0.01,0.01,0.01,0.01,0.01,0.01,0.01</thickness>
			</element>
			<element id="22">
				<thickness>0.01,0.01,0.01,0.01,0.01,0.01,0.01,0.01</thickness>
			</element>
			<element id="23">
				<thickness>0.01,0.01,0.01,0.01,0.01,0.01,0.01,0.01</thickness>
			</element>
			<element id="24">
				<thickness>0.01,0.01,0.01,0.01,0.01,0.01,0.01,0.01</thickness>
			</element>
			<element id="25">
				<thickness>0.01,0.01,0.01,0.01,0.01,0.01,0.01,0.01</thickness>
			</element>
			<element id="26">
				<thickness>0.01,0.01,0.01,0.01,0.01,0.01,0.01,0.01</thickness>
			</element>
			<element id="27">
				<thickness>0.01,0.01,0.01,0.01,0.01,0.01,0.01,0.01</thickness>
			</element>
			<element id="28">
				<thickness>0.01,0.01,0.01,0.01,0.01,0.01,0.01,0.01</thickness>
			</element>
			<element id="29">
				<thickness>0.01,0.01,0.01,0.01,0.01,0.01,0.01,0.01</thickness>
			</element>
			<element id="30">
				<thickness>0.01,0.01,0.01,0.01,0.01,0.01,0.01,0.01</thickness>
			</element>
			<element id="31">
				<thickness>0.01,0.01,0.01,0.01,0.01,0.01,0.01,0.01</thickness>
			</element>
			<element id="32">
				<thickness>0.01,0.01,0.01,0.01,0.01,0.01,0.01,0.01</thickness>
			</element>
			<element id="33">
				<thickness>0.01,0.01,0.01,0.01,0.01,0.01,0.01,0.01</thickness>
			</element>
			<element id="34">
				<thickness>0.01,0.01,0.01,0.01,0.01,0.01,0.01,0.01</thickness>
			</element>
			<element id="35">
				<thickness>0.01,0.01,0.01,0.01,0.01,0.01,0.01,0.01</thickness>
			</element>
			<element id="36">
				<thickness>0.01,0.01,0.01,0.01,0.01,0.01,0.01,0.01</thickness>
			</element>
			<element id="37">
				<thickness>0.01,0.01,0.01,0.01,0.01,0.01,0.01,0.01</thickness>
			</element>
			<element id="38">
				<thickness>0.01,0.01,0.01,0.01,0.01,0.01,0.01,0.01</thickness>
			</element>
			<element id="39">
				<thickness>0.01,0.01,0.01,0.01,0.01,0.01,0.01,0.01</thickness>
			</element>
			<element id="40">
				<thickness>0.01,0.01,0.01,0.01,0.01,0.01,0.01,0.01</thickness>
			</element>
		</ElementData>
		<NodeSet name="patchz">
			<node id="1"/>
			<node id="2"/>
			<node id="3"/>
			<node id="4"/>
			<node id="5"/>
			<node id="6"/>
			<node id="7"/>
			<node id="8"/>
			<node id="9"/>
			<node id="10"/>
			<node id="11"/>
			<node id="12"/>
			<node id="13"/>
			<node id="14"/>
			<node id="15"/>
			<node id="16"/>
			<node id="17"/>
			<node id="18"/>
			<node id="19"/>
			<node id="20"/>
<!-- ... 129 like lines cut -->
		</NodeSet>
		<NodeSet name="patch-x">
			<node id="1"/>
			<node id="2"/>
			<node id="3"/>
			<node id="4"/>
			<node id="5"/>
			<node id="57"/>
			<node id="59"/>
			<node id="61"/>
			<node id="63"/>
		</NodeSet>
		<NodeSet name="patchx">
			<node id="51"/>
			<node id="52"/>
			<node id="53"/>
			<node id="54"/>
			<node id="55"/>
			<node id="146"/>
			<node id="147"/>
			<node id="148"/>
			<node id="149"/>
		</NodeSet>
		<NodeSet name="patch-y">
			<node id="1"/>
			<node id="6"/>
			<node id="11"/>
			<node id="16"/>
			<node id="21"/>
			<node id="26"/>
			<node id="31"/>
			<node id="36"/>
			<node id="41"/>
			<node id="46"/>
			<node id="51"/>
			<node id="56"/>
			<node id="66"/>
			<node id="75"/>
			<node id="84"/>
			<node id="93"/>
			<node id="102"/>
			<node id="111"/>
			<node id="120"/>
			<node id="129"/>
			<node id="138"/>
		</NodeSet>
		<NodeSet name="patchy">
			<node id="5"/>
			<node id="10"/>
			<node id="15"/>
			<node id="20"/>
			<node id="25"/>
			<node id="30"/>
			<node id="35"/>
			<node id="40"/>
			<node id="45"/>
			<node id="50"/>
			<node id="55"/>
			<node id="64"/>
			<node id="73"/>
			<node id="82"/>
			<node id="91"/>
			<node id="100"/>
			<node id="109"/>
			<node id="118"/>
			<node id="127"/>
			<node id="136"/>
			<node id="145"/>
		</NodeSet>
		<Surface name="patchz">
			<quad8 id="1">1,6,7,2,56,65,58,57</quad8>
			<quad8 id="2">2,7,8,3,58,67,60,59</quad8>
			<quad8 id="3">3,8,9,4,60,69,62,61</quad8>
			<quad8 id="4">4,9,10,5,62,71,64,63</quad8>
			<quad8 id="5">6,11,12,7,66,74,68,65</quad8>
			<quad8 id="6">7,12,13,8,68,76,70,67</quad8>
			<quad8 id="7">8,13,14,9,70,78,72,69</quad8>
			<quad8 id="8">9,14,15,10,72,80,73,71</quad8>
			<quad8 id="9">11,16,17,12,75,83,77,74</quad8>
			<quad8 id="10">12,17,18,13,77,85,79,76</quad8>
			<quad8 id="11">13,18,19,14,79,87,81,78</quad8>
			<quad8 id="12">14,19,20,15,81,89,82,80</quad8>
			<quad8 id="13">16,21,22,17,84,92,86,83</quad8>
			<quad8 id="14">17,22,23,18,86,94,88,85</quad8>
			<quad8 id="15">18,23,24,19,88,96,90,87</quad8>
			<quad8 id="16">19,24,25,20,90,98,91,89</quad8>
			<quad8 id="17">21,26,27,22,93,101,95,92</quad8>
			<quad8 id="18">22,27,28,23,95,103,97,94</quad8>
			<quad8 id="19">23,28,29,24,97,105,99,96</quad8>
			<quad8 id="20">24,29,30,25,99,107,100,98</quad8>
<!-- ... 20 like lines cut -->
		</Surface>
	</Geometry>
	<Contact>
		<contact type="rigid">
			<node id="1" rb="2"></node>
			<node id="2" rb="2"></node>
			<node id="3" rb="2"></node>
			<node id="4" rb="2"></node>
			<node id="5" rb="2"></node>
			<node id="57" rb="2"></node>
			<node id="59" rb="2"></node>
			<node id="61" rb="2"></node>
			<node id="63" rb="2"></node>
		</contact>
		<contact type="rigid">
			<node id="51" rb="3"></node>
			<node id="52" rb="3"></node>
			<node id="53" rb="3"></node>
			<node id="54" rb="3"></node>
			<node id="55" rb="3"></node>
			<node id="146" rb="3"></node>
			<node id="147" rb="3"></node>
			<node id="148" rb="3"></node>
			<node id="149" rb="3"></node>
		</contact>
	</Contact>
	<Constraints>
		<rigid_body mat = "2">
			<fixed bc="x" />
			<fixed bc="y" />
			<fixed bc="z" />
			<fixed bc="Rx" />
			<fixed bc="Ry" />
			<fixed bc="Rz" />
		</rigid_body>
		<rigid_body mat = "3">
			<fixed bc="y" />
			<fixed bc="z" />
			<fixed bc="Rx" />
			<fixed bc="Ry" />
			<fixed bc="Rz" />
			<prescribed bc="x" lc="1">1</prescribed>
		</rigid_body>
	</Constraints>
	<LoadData>
		<loadcurve id="1" type="linear">
			<point>0,0</point>
			<point>1,2</point>
		</loadcurve>
	</LoadData>
	<Output>
		<plotfile type="febio">
			<var type="displacement"/>
			<var type="stress"/>
			<var type="relative volume"/>
			<var type="shell director"/>
			<var type="shell strain"/>
		</plotfile>
		<logfile>
			<node_data data="z">4</node_data>
		</logfile>
	</Output>
</febio_spec>
