<?xml version="1.0" encoding="ISO-8859-1"?>
<!--
Problem Description:
	A block composed of tetrahedral elements has its left end nodes fixed and
	the right end nodes have a displacement of 1 unit in the x-direction at time
	t=1.
Main Features:
	Tetrahedral element
Secondary Features:
	
Materials:
	Neo-Hookean
Degrees of Freedom: 1145
Results:
	Steps Completed: 10
	Equilibrium Iterations: 32
	Right Hand Evaluations: 42
	Siffness Reformations: 32
	Other:
		The maximum z displacement is -0.197 units at time t=1.
Comments:
	
-->
<febio_spec version="2.0">
	<Module type="solid"/>
	<Control>
		<title>Tensile Test with Tetrahedral Elements</title>
		<time_steps>10</time_steps>
		<step_size>0.1</step_size>
		<max_refs>50</max_refs>
		<max_ups>0</max_ups>
		<dtol>0.001</dtol>
		<etol>0.01</etol>
		<rtol>0</rtol>
		<lstol>0</lstol>
		<analysis type="static"/>
		<integration>
			<rule elem="tet4" type="UT4">
				<alpha>0.05</alpha>
				<iso_stab>0</iso_stab>
			</rule>
		</integration>
	</Control>
	<Globals>
		<Constants>
			<T>0</T>
			<R>0</R>
			<Fc>0</Fc>
		</Constants>
	</Globals>
	<Material>
		<material id="1" name="Material 1" type="neo-Hookean">
			<density>1</density>
			<E>1</E>
			<v>0.49</v>
		</material>
	</Material>
	<Geometry>
		<Nodes>
			<node id="1">-5.0000000e-001,-5.0000000e-001, 0.0000000e+000</node>
			<node id="2">-5.0000000e-001,-5.0000000e-001, 1.0000000e+000</node>
			<node id="3">-5.0000000e-001, 5.0000000e-001, 0.0000000e+000</node>
			<node id="4">-5.0000000e-001, 5.0000000e-001, 1.0000000e+000</node>
			<node id="5"> 5.0000000e-001,-5.0000000e-001, 0.0000000e+000</node>
			<node id="6"> 5.0000000e-001,-5.0000000e-001, 1.0000000e+000</node>
			<node id="7"> 5.0000000e-001, 5.0000000e-001, 0.0000000e+000</node>
			<node id="8"> 5.0000000e-001, 5.0000000e-001, 1.0000000e+000</node>
			<node id="9">-5.0000000e-001, 0.0000000e+000, 1.0000000e+000</node>
			<node id="10">-5.0000000e-001, 5.0000000e-001, 5.0000000e-001</node>
			<node id="11">-5.0000000e-001,-5.0000000e-001, 5.0000000e-001</node>
			<node id="12">-5.0000000e-001, 0.0000000e+000, 0.0000000e+000</node>
			<node id="13"> 5.0000000e-001, 0.0000000e+000, 0.0000000e+000</node>
			<node id="14"> 5.0000000e-001,-5.0000000e-001, 5.0000000e-001</node>
			<node id="15"> 5.0000000e-001, 5.0000000e-001, 5.0000000e-001</node>
			<node id="16"> 5.0000000e-001, 0.0000000e+000, 1.0000000e+000</node>
			<node id="17"> 0.0000000e+000, 5.0000000e-001, 0.0000000e+000</node>
			<node id="18">-5.0000000e-001, 0.0000000e+000, 5.0000000e-001</node>
			<node id="19"> 0.0000000e+000,-5.0000000e-001, 0.0000000e+000</node>
			<node id="20"> 0.0000000e+000, 0.0000000e+000, 0.0000000e+000</node>
<!-- ... 472 like lines cut -->
		</Nodes>
		<Elements type="tet4" mat="1" elset="Part5">
			<elem id="1">   228,   155,    83,   319</elem>
			<elem id="2">   275,   281,   276,   341</elem>
			<elem id="3">   252,   407,   327,   466</elem>
			<elem id="4">    39,   158,   157,   159</elem>
			<elem id="5">    65,   239,    59,   427</elem>
			<elem id="6">   140,   212,    23,   389</elem>
			<elem id="7">    30,   266,   166,   267</elem>
			<elem id="8">   101,   245,   171,   343</elem>
			<elem id="9">    88,   319,   229,   320</elem>
			<elem id="10">   374,   405,   183,   425</elem>
			<elem id="11">    63,   263,   193,   359</elem>
			<elem id="12">   148,   311,    52,   335</elem>
			<elem id="13">     4,   291,    80,   292</elem>
			<elem id="14">   194,   266,   115,   371</elem>
			<elem id="15">   198,   239,   171,   241</elem>
			<elem id="16">   112,   174,    64,   193</elem>
			<elem id="17">    89,   219,   155,   229</elem>
			<elem id="18">    73,   280,   273,   438</elem>
			<elem id="19">    76,   133,    44,   279</elem>
			<elem id="20">    44,   203,   124,   208</elem>
<!-- ... 1998 like lines cut -->
		</Elements>
	</Geometry>
	<Boundary>
		<fix bc="z">
			<node id="1"/>
			<node id="2"/>
			<node id="3"/>
			<node id="4"/>
			<node id="9"/>
			<node id="10"/>
			<node id="11"/>
			<node id="12"/>
			<node id="18"/>
			<node id="24"/>
			<node id="25"/>
			<node id="27"/>
			<node id="28"/>
			<node id="30"/>
			<node id="34"/>
			<node id="35"/>
			<node id="41"/>
			<node id="43"/>
			<node id="49"/>
			<node id="54"/>
<!-- ... 47 like lines cut -->
		</fix>
		<fix bc="y">
			<node id="1"/>
			<node id="2"/>
			<node id="3"/>
			<node id="4"/>
			<node id="9"/>
			<node id="10"/>
			<node id="11"/>
			<node id="12"/>
			<node id="18"/>
			<node id="24"/>
			<node id="25"/>
			<node id="27"/>
			<node id="28"/>
			<node id="30"/>
			<node id="34"/>
			<node id="35"/>
			<node id="41"/>
			<node id="43"/>
			<node id="49"/>
			<node id="54"/>
<!-- ... 47 like lines cut -->
		</fix>
		<fix bc="x">
			<node id="1"/>
			<node id="2"/>
			<node id="3"/>
			<node id="4"/>
			<node id="9"/>
			<node id="10"/>
			<node id="11"/>
			<node id="12"/>
			<node id="18"/>
			<node id="24"/>
			<node id="25"/>
			<node id="27"/>
			<node id="28"/>
			<node id="30"/>
			<node id="34"/>
			<node id="35"/>
			<node id="41"/>
			<node id="43"/>
			<node id="49"/>
			<node id="54"/>
<!-- ... 47 like lines cut -->
		</fix>
		<fix bc="z">
			<node id="5"/>
			<node id="6"/>
			<node id="7"/>
			<node id="8"/>
			<node id="13"/>
			<node id="14"/>
			<node id="15"/>
			<node id="16"/>
			<node id="22"/>
			<node id="32"/>
			<node id="33"/>
			<node id="38"/>
			<node id="39"/>
			<node id="44"/>
			<node id="47"/>
			<node id="51"/>
			<node id="76"/>
			<node id="83"/>
			<node id="84"/>
			<node id="88"/>
<!-- ... 45 like lines cut -->
		</fix>
		<fix bc="y">
			<node id="5"/>
			<node id="6"/>
			<node id="7"/>
			<node id="8"/>
			<node id="13"/>
			<node id="14"/>
			<node id="15"/>
			<node id="16"/>
			<node id="22"/>
			<node id="32"/>
			<node id="33"/>
			<node id="38"/>
			<node id="39"/>
			<node id="44"/>
			<node id="47"/>
			<node id="51"/>
			<node id="76"/>
			<node id="83"/>
			<node id="84"/>
			<node id="88"/>
<!-- ... 45 like lines cut -->
		</fix>
		<prescribe bc="x" lc="1">
			<node id="5">1</node>
			<node id="6">1</node>
			<node id="7">1</node>
			<node id="8">1</node>
			<node id="13">1</node>
			<node id="14">1</node>
			<node id="15">1</node>
			<node id="16">1</node>
			<node id="22">1</node>
			<node id="32">1</node>
			<node id="33">1</node>
			<node id="38">1</node>
			<node id="39">1</node>
			<node id="44">1</node>
			<node id="47">1</node>
			<node id="51">1</node>
			<node id="76">1</node>
			<node id="83">1</node>
			<node id="84">1</node>
			<node id="88">1</node>
<!-- ... 45 like lines cut -->
		</prescribe>
	</Boundary>
	<LoadData>
		<loadcurve id="1" type="smooth">
			<loadpoint>0,0</loadpoint>
			<loadpoint>1,1</loadpoint>
		</loadcurve>
	</LoadData>
	<Output>
		<plotfile type="febio"></plotfile>
		<logfile>
			<element_data data="Ex">205</element_data>
		</logfile>		
	</Output>
</febio_spec>
