<?xml version="1.0" encoding="ISO-8859-1"?>
<!-- 
Problem Description:
Unconfined compression stress-relaxation of triphasic material whose solid matrix
consists of a spherical fiber distribution.  A two-step analysis is performed, where the
first step is a steady-state analysis needed to produce equilibrium free swelling by raising
the fixed charged density from zero to the final desired value.  The second step is a
transient analysis where the compressive displacement prescribed on the top surface
is relative to the free-swelling state. 

Main Features:
	Triphasic material
Secondary Features:
	Relative prescribed displacements
Materials:
	Triphasic
	Solid Mixture
	Neo-Hookean
	Spherical Fiber Distribution
	Constant Isotropic Permeability
	Constant Osmotic Coefficient
	Constant Isotropic Diffusivity
	Constant Solubility
Degrees of Freedom: 1907
Results:
	Steps Completed: 52
	Equilibrium Iterations: 149
	Right Hand Evaluations: 201
	Siffness Reformations: 149
	Other:
		The peak compressive load is -4.45 at time t=201.
 
Comments:
	
-->
<febio_spec version="2.0">
	<Globals>
		<Constants>
			<T>293</T>
			<R>8.3144e-006</R>
			<Fc>9.65e-005</Fc>
		</Constants>
		<Solutes>
			<solute id="1" name="Na">
				<charge_number>1</charge_number>
				<molar_mass>1</molar_mass>
				<density>1</density>
			</solute>
			<solute id="2" name="Cl">
				<charge_number>-1</charge_number>
				<molar_mass>1</molar_mass>
				<density>1</density>
			</solute>
		</Solutes>
	</Globals>
	<Material>
		<material id="1" name="Triphasic" type="triphasic">
			<phi0>0.2</phi0>
			<fixed_charge_density lc="2">1</fixed_charge_density>
			<solid type="solid mixture">
				<solid type="neo-Hookean">
					<density>1</density>
					<E>1e-006</E>
					<v>0</v>
				</solid>
				<solid type="ellipsoidal fiber distribution">
					<beta>2.5,2.5,2.5</beta>
					<ksi>4,4,4</ksi>
				</solid>
			</solid>
			<permeability type="perm-const-iso">
				<perm>0.000914</perm>
			</permeability>
			<osmotic_coefficient type="osm-coef-const">
				<osmcoef>1</osmcoef>
			</osmotic_coefficient>
			<solute sol="1">
				<diffusivity type="diff-const-iso">
					<free_diff>0.0006</free_diff>
					<diff>0.0005</diff>
				</diffusivity>
				<solubility type="solub-const">
					<solub>1</solub>
				</solubility>
			</solute>
			<solute sol="2">
				<diffusivity type="diff-const-iso">
					<free_diff>0.0009</free_diff>
					<diff>0.0008</diff>
				</diffusivity>
				<solubility type="solub-const">
					<solub>1</solub>
				</solubility>
			</solute>
		</material>
	</Material>
	<Geometry>
		<Nodes>
			<node id="1"> 0.0000000e+000, 0.0000000e+000, 0.0000000e+000</node>
			<node id="2"> 5.5039810e-001, 0.0000000e+000, 0.0000000e+000</node>
			<node id="3"> 5.3982235e-001, 1.0737734e-001, 0.0000000e+000</node>
			<node id="4"> 5.0850154e-001, 2.1062823e-001, 0.0000000e+000</node>
			<node id="5"> 4.5763930e-001, 3.0578480e-001, 0.0000000e+000</node>
			<node id="6"> 3.8919023e-001, 3.8919022e-001, 0.0000000e+000</node>
			<node id="7"> 3.0578481e-001, 4.5763929e-001, 0.0000000e+000</node>
			<node id="8"> 2.1062824e-001, 5.0850153e-001, 0.0000000e+000</node>
			<node id="9"> 1.0737736e-001, 5.3982235e-001, 0.0000000e+000</node>
			<node id="10"> 1.4747860e-008, 5.5039810e-001, 0.0000000e+000</node>
			<node id="11"> 1.0017245e+000, 0.0000000e+000, 0.0000000e+000</node>
			<node id="12"> 9.8247669e-001, 1.9542676e-001, 0.0000000e+000</node>
			<node id="13"> 9.2547280e-001, 3.8334338e-001, 0.0000000e+000</node>
			<node id="14"> 8.3290352e-001, 5.5652833e-001, 0.0000000e+000</node>
			<node id="15"> 7.0832623e-001, 7.0832621e-001, 0.0000000e+000</node>
			<node id="16"> 5.5652835e-001, 8.3290351e-001, 0.0000000e+000</node>
			<node id="17"> 3.8334340e-001, 9.2547279e-001, 0.0000000e+000</node>
			<node id="18"> 1.9542679e-001, 9.8247668e-001, 0.0000000e+000</node>
			<node id="19"> 2.6841105e-008, 1.0017245e+000, 0.0000000e+000</node>
			<node id="20"> 1.3718122e+000, 0.0000000e+000, 0.0000000e+000</node>
<!-- ... 342 like lines cut -->
		</Nodes>
		<Elements type="penta6" mat="1" elset="Part9">
			<elem id="1">     1,     2,     3,   182,   183,   184</elem>
			<elem id="2">     1,     3,     4,   182,   184,   185</elem>
			<elem id="3">     1,     4,     5,   182,   185,   186</elem>
			<elem id="4">     1,     5,     6,   182,   186,   187</elem>
			<elem id="5">     1,     6,     7,   182,   187,   188</elem>
			<elem id="6">     1,     7,     8,   182,   188,   189</elem>
			<elem id="7">     1,     8,     9,   182,   189,   190</elem>
			<elem id="8">     1,     9,    10,   182,   190,   191</elem>
		</Elements>
		<Elements type="hex8" mat="1" elset="Part9">
			<elem id="9">     2,    11,    12,     3,   183,   192,   193,   184</elem>
			<elem id="10">     3,    12,    13,     4,   184,   193,   194,   185</elem>
			<elem id="11">     4,    13,    14,     5,   185,   194,   195,   186</elem>
			<elem id="12">     5,    14,    15,     6,   186,   195,   196,   187</elem>
			<elem id="13">     6,    15,    16,     7,   187,   196,   197,   188</elem>
			<elem id="14">     7,    16,    17,     8,   188,   197,   198,   189</elem>
			<elem id="15">     8,    17,    18,     9,   189,   198,   199,   190</elem>
			<elem id="16">     9,    18,    19,    10,   190,   199,   200,   191</elem>
			<elem id="17">    11,    20,    21,    12,   192,   201,   202,   193</elem>
			<elem id="18">    12,    21,    22,    13,   193,   202,   203,   194</elem>
			<elem id="19">    13,    22,    23,    14,   194,   203,   204,   195</elem>
			<elem id="20">    14,    23,    24,    15,   195,   204,   205,   196</elem>
			<elem id="21">    15,    24,    25,    16,   196,   205,   206,   197</elem>
			<elem id="22">    16,    25,    26,    17,   197,   206,   207,   198</elem>
			<elem id="23">    17,    26,    27,    18,   198,   207,   208,   199</elem>
			<elem id="24">    18,    27,    28,    19,   199,   208,   209,   200</elem>
			<elem id="25">    20,    29,    30,    21,   201,   210,   211,   202</elem>
			<elem id="26">    21,    30,    31,    22,   202,   211,   212,   203</elem>
			<elem id="27">    22,    31,    32,    23,   203,   212,   213,   204</elem>
			<elem id="28">    23,    32,    33,    24,   204,   213,   214,   205</elem>
<!-- ... 132 like lines cut -->
		</Elements>
	</Geometry>
	<Boundary>
		<fix bc="x">
			<node id="1"/>
			<node id="10"/>
			<node id="19"/>
			<node id="28"/>
			<node id="37"/>
			<node id="46"/>
			<node id="55"/>
			<node id="64"/>
			<node id="73"/>
			<node id="82"/>
			<node id="91"/>
			<node id="100"/>
			<node id="109"/>
			<node id="118"/>
			<node id="127"/>
			<node id="136"/>
			<node id="145"/>
			<node id="154"/>
			<node id="163"/>
			<node id="172"/>
<!-- ... 22 like lines cut -->
		</fix>
		<fix bc="y">
			<node id="1"/>
			<node id="2"/>
			<node id="11"/>
			<node id="20"/>
			<node id="29"/>
			<node id="38"/>
			<node id="47"/>
			<node id="56"/>
			<node id="65"/>
			<node id="74"/>
			<node id="83"/>
			<node id="92"/>
			<node id="101"/>
			<node id="110"/>
			<node id="119"/>
			<node id="128"/>
			<node id="137"/>
			<node id="146"/>
			<node id="155"/>
			<node id="164"/>
<!-- ... 22 like lines cut -->
		</fix>
		<fix bc="z">
			<node id="1"/>
			<node id="2"/>
			<node id="3"/>
			<node id="4"/>
			<node id="5"/>
			<node id="6"/>
			<node id="7"/>
			<node id="8"/>
			<node id="9"/>
			<node id="10"/>
			<node id="11"/>
			<node id="12"/>
			<node id="13"/>
			<node id="14"/>
			<node id="15"/>
			<node id="16"/>
			<node id="17"/>
			<node id="18"/>
			<node id="19"/>
			<node id="20"/>
<!-- ... 161 like lines cut -->
		</fix>
		<prescribe bc="p" lc="3">
			<node id="173">1</node>
			<node id="174">1</node>
			<node id="175">1</node>
			<node id="176">1</node>
			<node id="177">1</node>
			<node id="178">1</node>
			<node id="179">1</node>
			<node id="180">1</node>
			<node id="181">1</node>
			<node id="354">1</node>
			<node id="355">1</node>
			<node id="356">1</node>
			<node id="357">1</node>
			<node id="358">1</node>
			<node id="359">1</node>
			<node id="360">1</node>
			<node id="361">1</node>
			<node id="362">1</node>
		</prescribe>
		<prescribe bc="c1" lc="4">
			<node id="173">1</node>
			<node id="174">1</node>
			<node id="175">1</node>
			<node id="176">1</node>
			<node id="177">1</node>
			<node id="178">1</node>
			<node id="179">1</node>
			<node id="180">1</node>
			<node id="181">1</node>
			<node id="354">1</node>
			<node id="355">1</node>
			<node id="356">1</node>
			<node id="357">1</node>
			<node id="358">1</node>
			<node id="359">1</node>
			<node id="360">1</node>
			<node id="361">1</node>
			<node id="362">1</node>
		</prescribe>
		<prescribe bc="c2" lc="5">
			<node id="173">1</node>
			<node id="174">1</node>
			<node id="175">1</node>
			<node id="176">1</node>
			<node id="177">1</node>
			<node id="178">1</node>
			<node id="179">1</node>
			<node id="180">1</node>
			<node id="181">1</node>
			<node id="354">1</node>
			<node id="355">1</node>
			<node id="356">1</node>
			<node id="357">1</node>
			<node id="358">1</node>
			<node id="359">1</node>
			<node id="360">1</node>
			<node id="361">1</node>
			<node id="362">1</node>
		</prescribe>
	</Boundary>
	<Initial>
		<concentration sol="1">
			<node id="1">150</node>
			<node id="2">150</node>
			<node id="3">150</node>
			<node id="4">150</node>
			<node id="5">150</node>
			<node id="6">150</node>
			<node id="7">150</node>
			<node id="8">150</node>
			<node id="9">150</node>
			<node id="10">150</node>
			<node id="11">150</node>
			<node id="12">150</node>
			<node id="13">150</node>
			<node id="14">150</node>
			<node id="15">150</node>
			<node id="16">150</node>
			<node id="17">150</node>
			<node id="18">150</node>
			<node id="19">150</node>
			<node id="20">150</node>
<!-- ... 342 like lines cut -->
		</concentration>
		<concentration sol="2">
			<node id="1">150</node>
			<node id="2">150</node>
			<node id="3">150</node>
			<node id="4">150</node>
			<node id="5">150</node>
			<node id="6">150</node>
			<node id="7">150</node>
			<node id="8">150</node>
			<node id="9">150</node>
			<node id="10">150</node>
			<node id="11">150</node>
			<node id="12">150</node>
			<node id="13">150</node>
			<node id="14">150</node>
			<node id="15">150</node>
			<node id="16">150</node>
			<node id="17">150</node>
			<node id="18">150</node>
			<node id="19">150</node>
			<node id="20">150</node>
<!-- ... 342 like lines cut -->
		</concentration>
		<fluid_pressure>
			<node id="1">-0.730836</node>
			<node id="2">-0.730836</node>
			<node id="3">-0.730836</node>
			<node id="4">-0.730836</node>
			<node id="5">-0.730836</node>
			<node id="6">-0.730836</node>
			<node id="7">-0.730836</node>
			<node id="8">-0.730836</node>
			<node id="9">-0.730836</node>
			<node id="10">-0.730836</node>
			<node id="11">-0.730836</node>
			<node id="12">-0.730836</node>
			<node id="13">-0.730836</node>
			<node id="14">-0.730836</node>
			<node id="15">-0.730836</node>
			<node id="16">-0.730836</node>
			<node id="17">-0.730836</node>
			<node id="18">-0.730836</node>
			<node id="19">-0.730836</node>
			<node id="20">-0.730836</node>
<!-- ... 342 like lines cut -->
		</fluid_pressure>
	</Initial>
	<LoadData>
		<loadcurve id="1" type="step">
			<loadpoint>0,0</loadpoint>
			<loadpoint>1,1</loadpoint>
			<loadpoint>201,20</loadpoint>
			<loadpoint>401,20</loadpoint>
			<loadpoint>2000,100</loadpoint>
		</loadcurve>
		<loadcurve id="2" type="linear">
			<loadpoint>0,0</loadpoint>
			<loadpoint>1,-80</loadpoint>
		</loadcurve>
		<loadcurve id="3" type="step">
			<loadpoint>0,0</loadpoint>
			<loadpoint>1,-0.730836</loadpoint>
		</loadcurve>
		<loadcurve id="4" type="step">
			<loadpoint>0,0</loadpoint>
			<loadpoint>1,150</loadpoint>
		</loadcurve>
		<loadcurve id="5" type="step">
			<loadpoint>0,0</loadpoint>
			<loadpoint>1,150</loadpoint>
		</loadcurve>
		<loadcurve id="6" type="linear">
			<loadpoint>0,0</loadpoint>
			<loadpoint>1,0</loadpoint>
			<loadpoint>201,-0.1</loadpoint>
		</loadcurve>
	</LoadData>
	<Output>
		<plotfile type="febio">
			<var type="current density"/>
			<var type="displacement"/>
			<var type="effective fluid pressure"/>
			<var type="effective solute 1 concentration"/>
			<var type="effective solute 2 concentration"/>
			<var type="electric potential"/>
			<var type="fixed charge density"/>
			<var type="fluid flux"/>
			<var type="fluid pressure"/>
			<var type="relative volume"/>
			<var type="solute 1 concentration"/>
			<var type="solute 2 concentration"/>
			<var type="solute 1 flux"/>
			<var type="solute 2 flux"/>
			<var type="stress"/>
		</plotfile>
		<logfile>
			<element_data data="sz">61</element_data>
		</logfile>		
	</Output>
	<Step name="Step01">
		<Module type="solute"/>
		<Control>
			<title>Initial Swelling</title>
			<time_steps>4</time_steps>
			<step_size>0.25</step_size>
			<max_refs>15</max_refs>
			<max_ups>0</max_ups>
			<dtol>0.001</dtol>
			<etol>0.01</etol>
			<rtol>0</rtol>
			<ptol>0.01</ptol>
			<ctol>0.01</ctol>
			<lstol>0.9</lstol>
			<time_stepper>
				<dtmin>0.01</dtmin>
				<dtmax>0.25</dtmax>
				<max_retries>5</max_retries>
				<opt_iter>10</opt_iter>
			</time_stepper>
			<analysis type="steady-state"/>
			<symmetric_biphasic>0</symmetric_biphasic>
		</Control>
	</Step>
	<Step name="Step02">
		<Module type="solute"/>
		<Control>
			<title>Stress-relaxation</title>
			<time_steps>20010</time_steps>
			<step_size>0.1</step_size>
			<max_refs>15</max_refs>
			<max_ups>0</max_ups>
			<dtol>0.001</dtol>
			<etol>0.01</etol>
			<rtol>0</rtol>
			<ptol>0.01</ptol>
			<ctol>0.01</ctol>
			<lstol>0.9</lstol>
			<time_stepper>
				<dtmin>0.01</dtmin>
				<dtmax lc="1"></dtmax>
				<max_retries>5</max_retries>
				<opt_iter>10</opt_iter>
			</time_stepper>
			<symmetric_biphasic>0</symmetric_biphasic>
		</Control>
		<Boundary>
			<prescribe type="relative" bc="z" lc="6">
				<node id="182">1</node>
				<node id="183">1</node>
				<node id="184">1</node>
				<node id="185">1</node>
				<node id="186">1</node>
				<node id="187">1</node>
				<node id="188">1</node>
				<node id="189">1</node>
				<node id="190">1</node>
				<node id="191">1</node>
				<node id="192">1</node>
				<node id="193">1</node>
				<node id="194">1</node>
				<node id="195">1</node>
				<node id="196">1</node>
				<node id="197">1</node>
				<node id="198">1</node>
				<node id="199">1</node>
				<node id="200">1</node>
				<node id="201">1</node>
<!-- ... 161 like lines cut -->
			</prescribe>
		</Boundary>
	</Step>
</febio_spec>
