<?xml version="1.0" encoding="ISO-8859-1"?>
<!-- 
Problem Description:
One-dimensional steady-state electrophoresis and electro-osmosis of a triphasic material.  To examine the phenomena of electrophoresis and electroosmosis, consider a tissue described by a triphasic material with ions Na+ and Cl- and a negatively charged solid matrix. The tissue (thickness h = 1 mm) is located between an upstream and a downstream bath. In these baths, due to electroneutrality and t

Main Features:
	Formulating boundary conditions to prescribe a known external electric potential
Secondary Features:
	Steady-state triphasic analysis
Materials:
	Triphasic
	Neo-Hookean
	Constant Isotropic Permeability
	Constant Osmotic Coefficient
	Constant Isotropic Diffusivity
	Constant Solubility
Degrees of Freedom: 652
Results:
	Steps Completed: 4
	Equilibrium Iterations: 16
	Right Hand Evaluations: 20
	Siffness Reformations: 16
	Other:
		The peak electric current density is 8.1e-6 A/mm^2 at t=2.
		The peak solvent flux is 1.5e-4 mm/s at t=2.
 
Comments:

-->	
<febio_spec version="2.0">
	<Globals>
		<Constants>
			<T>293</T>
			<R>8.314e-006</R>
			<Fc>9.65e-005</Fc>
		</Constants>
		<Solutes>
			<solute id="1" name="Na+">
				<charge_number>1</charge_number>
				<molar_mass>1</molar_mass>
				<density>1</density>
			</solute>
			<solute id="2" name="Cl-">
				<charge_number>-1</charge_number>
				<molar_mass>1</molar_mass>
				<density>1</density>
			</solute>
		</Solutes>
	</Globals>
	<Material>
		<material id="1" name="Triphasic" type="triphasic">
			<phi0>0.2</phi0>
			<fixed_charge_density lc="1">-200</fixed_charge_density>
			<solid type="neo-Hookean">
				<density>1</density>
				<E>1</E>
				<v>0</v>
			</solid>
			<permeability type="perm-const-iso">
				<perm>0.001</perm>
			</permeability>
			<osmotic_coefficient type="osm-coef-const">
				<osmcoef>1</osmcoef>
			</osmotic_coefficient>
			<solute sol="1">
				<diffusivity type="diff-const-iso">
					<free_diff>0.0005</free_diff>
					<diff>0.0005</diff>
				</diffusivity>
				<solubility type="solub-const">
					<solub>1</solub>
				</solubility>
			</solute>
			<solute sol="2">
				<diffusivity type="diff-const-iso">
					<free_diff>0.0008</free_diff>
					<diff>0.0008</diff>
				</diffusivity>
				<solubility type="solub-const">
					<solub>1</solub>
				</solubility>
			</solute>
		</material>
	</Material>
	<Geometry>
		<Nodes>
			<node id="1">-5.0000000e-001,-5.0000000e-001, 0.0000000e+000</node>
			<node id="2">-5.0000000e-001,-5.0000000e-001, 2.6782653e-003</node>
			<node id="3">-5.0000000e-001,-5.0000000e-001, 5.8921838e-003</node>
			<node id="4">-5.0000000e-001,-5.0000000e-001, 9.7488859e-003</node>
			<node id="5">-5.0000000e-001,-5.0000000e-001, 1.4376928e-002</node>
			<node id="6">-5.0000000e-001,-5.0000000e-001, 1.9930579e-002</node>
			<node id="7">-5.0000000e-001,-5.0000000e-001, 2.6594961e-002</node>
			<node id="8">-5.0000000e-001,-5.0000000e-001, 3.4592218e-002</node>
			<node id="9">-5.0000000e-001,-5.0000000e-001, 4.4188927e-002</node>
			<node id="10">-5.0000000e-001,-5.0000000e-001, 5.5704978e-002</node>
			<node id="11">-5.0000000e-001,-5.0000000e-001, 6.9524239e-002</node>
			<node id="12">-5.0000000e-001,-5.0000000e-001, 8.6107352e-002</node>
			<node id="13">-5.0000000e-001,-5.0000000e-001, 1.0600709e-001</node>
			<node id="14">-5.0000000e-001,-5.0000000e-001, 1.2988677e-001</node>
			<node id="15">-5.0000000e-001,-5.0000000e-001, 1.5854239e-001</node>
			<node id="16">-5.0000000e-001,-5.0000000e-001, 1.9292913e-001</node>
			<node id="17">-5.0000000e-001,-5.0000000e-001, 2.3419323e-001</node>
			<node id="18">-5.0000000e-001,-5.0000000e-001, 2.8371014e-001</node>
			<node id="19">-5.0000000e-001,-5.0000000e-001, 3.4313043e-001</node>
			<node id="20">-5.0000000e-001,-5.0000000e-001, 4.1443478e-001</node>
<!-- ... 144 like lines cut -->
		</Nodes>
		<Elements type="hex8" mat="1" elset="Part12">
			<elem id="1">     1,    83,   124,    42,     2,    84,   125,    43</elem>
			<elem id="2">     2,    84,   125,    43,     3,    85,   126,    44</elem>
			<elem id="3">     3,    85,   126,    44,     4,    86,   127,    45</elem>
			<elem id="4">     4,    86,   127,    45,     5,    87,   128,    46</elem>
			<elem id="5">     5,    87,   128,    46,     6,    88,   129,    47</elem>
			<elem id="6">     6,    88,   129,    47,     7,    89,   130,    48</elem>
			<elem id="7">     7,    89,   130,    48,     8,    90,   131,    49</elem>
			<elem id="8">     8,    90,   131,    49,     9,    91,   132,    50</elem>
			<elem id="9">     9,    91,   132,    50,    10,    92,   133,    51</elem>
			<elem id="10">    10,    92,   133,    51,    11,    93,   134,    52</elem>
			<elem id="11">    11,    93,   134,    52,    12,    94,   135,    53</elem>
			<elem id="12">    12,    94,   135,    53,    13,    95,   136,    54</elem>
			<elem id="13">    13,    95,   136,    54,    14,    96,   137,    55</elem>
			<elem id="14">    14,    96,   137,    55,    15,    97,   138,    56</elem>
			<elem id="15">    15,    97,   138,    56,    16,    98,   139,    57</elem>
			<elem id="16">    16,    98,   139,    57,    17,    99,   140,    58</elem>
			<elem id="17">    17,    99,   140,    58,    18,   100,   141,    59</elem>
			<elem id="18">    18,   100,   141,    59,    19,   101,   142,    60</elem>
			<elem id="19">    19,   101,   142,    60,    20,   102,   143,    61</elem>
			<elem id="20">    20,   102,   143,    61,    21,   103,   144,    62</elem>
<!-- ... 20 like lines cut -->
		</Elements>
	</Geometry>
	<Boundary>
		<fix bc="x">
			<node id="1"/>
			<node id="2"/>
			<node id="3"/>
			<node id="4"/>
			<node id="5"/>
			<node id="6"/>
			<node id="7"/>
			<node id="8"/>
			<node id="9"/>
			<node id="10"/>
			<node id="11"/>
			<node id="12"/>
			<node id="13"/>
			<node id="14"/>
			<node id="15"/>
			<node id="16"/>
			<node id="17"/>
			<node id="18"/>
			<node id="19"/>
			<node id="20"/>
<!-- ... 144 like lines cut -->
		</fix>
		<fix bc="y">
			<node id="1"/>
			<node id="2"/>
			<node id="3"/>
			<node id="4"/>
			<node id="5"/>
			<node id="6"/>
			<node id="7"/>
			<node id="8"/>
			<node id="9"/>
			<node id="10"/>
			<node id="11"/>
			<node id="12"/>
			<node id="13"/>
			<node id="14"/>
			<node id="15"/>
			<node id="16"/>
			<node id="17"/>
			<node id="18"/>
			<node id="19"/>
			<node id="20"/>
<!-- ... 144 like lines cut -->
		</fix>
		<fix bc="z">
			<node id="41"/>
			<node id="82"/>
			<node id="123"/>
			<node id="164"/>
		</fix>
		<prescribe bc="c1" lc="2">
			<node id="1">150</node>
			<node id="42">150</node>
			<node id="83">150</node>
			<node id="124">150</node>
		</prescribe>
		<prescribe bc="c1" lc="3">
			<node id="41">150</node>
			<node id="82">150</node>
			<node id="123">150</node>
			<node id="164">150</node>
		</prescribe>
		<prescribe bc="p" lc="4">
			<node id="1">1</node>
			<node id="42">1</node>
			<node id="83">1</node>
			<node id="124">1</node>
		</prescribe>
		<prescribe bc="p" lc="5">
			<node id="41">1</node>
			<node id="82">1</node>
			<node id="123">1</node>
			<node id="164">1</node>
		</prescribe>
		<prescribe bc="c2" lc="6">
			<node id="1">150</node>
			<node id="42">150</node>
			<node id="83">150</node>
			<node id="124">150</node>
		</prescribe>
		<prescribe bc="c2" lc="7">
			<node id="41">150</node>
			<node id="82">150</node>
			<node id="123">150</node>
			<node id="164">150</node>
		</prescribe>
	</Boundary>
	<Initial>
		<concentration sol="1">
			<node id="1">150</node>
			<node id="2">150</node>
			<node id="3">150</node>
			<node id="4">150</node>
			<node id="5">150</node>
			<node id="6">150</node>
			<node id="7">150</node>
			<node id="8">150</node>
			<node id="9">150</node>
			<node id="10">150</node>
			<node id="11">150</node>
			<node id="12">150</node>
			<node id="13">150</node>
			<node id="14">150</node>
			<node id="15">150</node>
			<node id="16">150</node>
			<node id="17">150</node>
			<node id="18">150</node>
			<node id="19">150</node>
			<node id="20">150</node>
<!-- ... 144 like lines cut -->
		</concentration>
		<concentration sol="2">
			<node id="1">150</node>
			<node id="2">150</node>
			<node id="3">150</node>
			<node id="4">150</node>
			<node id="5">150</node>
			<node id="6">150</node>
			<node id="7">150</node>
			<node id="8">150</node>
			<node id="9">150</node>
			<node id="10">150</node>
			<node id="11">150</node>
			<node id="12">150</node>
			<node id="13">150</node>
			<node id="14">150</node>
			<node id="15">150</node>
			<node id="16">150</node>
			<node id="17">150</node>
			<node id="18">150</node>
			<node id="19">150</node>
			<node id="20">150</node>
<!-- ... 144 like lines cut -->
		</concentration>
		<fluid_pressure>
			<node id="1">-0.730801</node>
			<node id="2">-0.730801</node>
			<node id="3">-0.730801</node>
			<node id="4">-0.730801</node>
			<node id="5">-0.730801</node>
			<node id="6">-0.730801</node>
			<node id="7">-0.730801</node>
			<node id="8">-0.730801</node>
			<node id="9">-0.730801</node>
			<node id="10">-0.730801</node>
			<node id="11">-0.730801</node>
			<node id="12">-0.730801</node>
			<node id="13">-0.730801</node>
			<node id="14">-0.730801</node>
			<node id="15">-0.730801</node>
			<node id="16">-0.730801</node>
			<node id="17">-0.730801</node>
			<node id="18">-0.730801</node>
			<node id="19">-0.730801</node>
			<node id="20">-0.730801</node>
<!-- ... 144 like lines cut -->
		</fluid_pressure>
	</Initial>
	<LoadData>
		<loadcurve id="1" type="linear">
			<loadpoint>0,0</loadpoint>
			<loadpoint>1,-200</loadpoint>
		</loadcurve>
		<loadcurve id="2" type="linear">
			<loadpoint>0,1</loadpoint>
			<loadpoint>1,1</loadpoint>
			<loadpoint>2,1.486078676</loadpoint>
		</loadcurve>
		<loadcurve id="3" type="step">
			<loadpoint>0,0</loadpoint>
			<loadpoint>1,1</loadpoint>
		</loadcurve>
		<loadcurve id="4" type="step">
			<loadpoint>0,0</loadpoint>
			<loadpoint>1,-0.7308006</loadpoint>
		</loadcurve>
		<loadcurve id="5" type="step">
			<loadpoint>0,0</loadpoint>
			<loadpoint>1,-0.7308006</loadpoint>
		</loadcurve>
		<loadcurve id="6" type="linear">
			<loadpoint>0,1</loadpoint>
			<loadpoint>1,1</loadpoint>
			<loadpoint>2,0.672911883</loadpoint>
		</loadcurve>
		<loadcurve id="7" type="step">
			<loadpoint>0,0</loadpoint>
			<loadpoint>1,1</loadpoint>
		</loadcurve>
	</LoadData>
	<Output>
		<plotfile type="febio">
			<var type="current density"/>
			<var type="displacement"/>
			<var type="effective fluid pressure"/>
			<var type="effective solute 1 concentration"/>
			<var type="effective solute 2 concentration"/>
			<var type="effective solute 3 concentration"/>
			<var type="electric potential"/>
			<var type="fixed charge density"/>
			<var type="fluid flux"/>
			<var type="fluid pressure"/>
			<var type="reaction forces"/>
			<var type="relative volume"/>
			<var type="solute 1 concentration"/>
			<var type="solute 2 concentration"/>
			<var type="solute 3 concentration"/>
			<var type="solute 1 flux"/>
			<var type="solute 2 flux"/>
			<var type="solute 3 flux"/>
			<var type="stress"/>
		</plotfile>
		<logfile>
			<element_data data="sy">12</element_data>
		</logfile>		
	</Output>
	<Step name="Step01">
		<Module type="solute"/>
		<Control>
			<time_steps>4</time_steps>
			<step_size>0.25</step_size>
			<max_refs>15</max_refs>
			<max_ups>0</max_ups>
			<dtol>0.001</dtol>
			<etol>0.01</etol>
			<rtol>0</rtol>
			<ptol>0.01</ptol>
			<ctol>0.01</ctol>
			<lstol>0.9</lstol>
			<time_stepper>
				<dtmin>0.01</dtmin>
				<dtmax>0.25</dtmax>
				<max_retries>5</max_retries>
				<opt_iter>10</opt_iter>
			</time_stepper>
			<analysis type="steady-state"/>
			<symmetric_biphasic>0</symmetric_biphasic>
		</Control>
	</Step>
	<Step name="Step02">
		<Module type="solute"/>
		<Control>
			<time_steps>4</time_steps>
			<step_size>0.25</step_size>
			<max_refs>15</max_refs>
			<max_ups>0</max_ups>
			<dtol>0.001</dtol>
			<etol>0.01</etol>
			<rtol>0</rtol>
			<ptol>0.01</ptol>
			<ctol>0.01</ctol>
			<lstol>0.9</lstol>
			<time_stepper>
				<dtmin>0.01</dtmin>
				<dtmax>0.25</dtmax>
				<max_retries>5</max_retries>
				<opt_iter>10</opt_iter>
			</time_stepper>
			<analysis type="steady-state"/>
			<symmetric_biphasic>0</symmetric_biphasic>
		</Control>
	</Step>
</febio_spec>
