<?xml version="1.0" encoding="ISO-8859-1"?>
<!--
Problem Description:
	1/4 symmetrical representation of the compression of a billet by a rigid wall
	with a z-displacement of 0.4 units at time t=1.
Main Features:
	Tutorial
	Rigid-wall Contact
Secondary Features:
	
Materials:
	Neo-Hookean
Degrees of Freedom: 2020
Results:
	Steps Completed: 11
	Equilibrium Iterations: 88
	Right Hand Evaluations: 103
	Siffness Reformations: 13
	Other:
		The billet has a maximum x-displacement of 0.685 at time t=1.
Comments:
	
-->
<febio_spec version="2.0">
	<Module type="solid"/>
	<Control>
		<title>Tutorial 3</title>
		<time_steps>10</time_steps>
		<step_size>0.1</step_size>
		<max_refs>15</max_refs>
		<max_ups>10</max_ups>
		<dtol>0.001</dtol>
		<etol>0.01</etol>
		<rtol>0</rtol>
		<lstol>0.9</lstol>
		<time_stepper>
			<dtmin>0.01</dtmin>
			<dtmax>0.1</dtmax>
			<max_retries>5</max_retries>
			<opt_iter>10</opt_iter>
		</time_stepper>
		<analysis type="static"/>
	</Control>
	<Globals>
		<Constants>
			<T>293</T>
			<R>8.314e-006</R>
			<Fc>9.65e-005</Fc>
		</Constants>
	</Globals>
	<Material>
		<material id="1" name="Material 2" type="neo-Hookean">
			<density>1</density>
			<E>1</E>
			<v>0.49</v>
		</material>
	</Material>
	<Geometry>
		<Nodes>
			<node id="1"> 0.0000000e+000,-5.0000000e-001,-5.0000000e-002</node>
			<node id="2"> 5.0000000e-002,-5.0000000e-001,-5.0000000e-002</node>
			<node id="3"> 1.0000000e-001,-5.0000000e-001,-5.0000000e-002</node>
			<node id="4"> 1.5000000e-001,-5.0000000e-001,-5.0000000e-002</node>
			<node id="5"> 2.0000000e-001,-5.0000000e-001,-5.0000000e-002</node>
			<node id="6"> 2.5000000e-001,-5.0000000e-001,-5.0000000e-002</node>
			<node id="7"> 3.0000000e-001,-5.0000000e-001,-5.0000000e-002</node>
			<node id="8"> 3.5000000e-001,-5.0000000e-001,-5.0000000e-002</node>
			<node id="9"> 4.0000000e-001,-5.0000000e-001,-5.0000000e-002</node>
			<node id="10"> 4.5000000e-001,-5.0000000e-001,-5.0000000e-002</node>
			<node id="11"> 5.0000000e-001,-5.0000000e-001,-5.0000000e-002</node>
			<node id="12"> 0.0000000e+000,-4.5000000e-001,-5.0000000e-002</node>
			<node id="13"> 5.0000000e-002,-4.5000000e-001,-5.0000000e-002</node>
			<node id="14"> 1.0000000e-001,-4.5000000e-001,-5.0000000e-002</node>
			<node id="15"> 1.5000000e-001,-4.5000000e-001,-5.0000000e-002</node>
			<node id="16"> 2.0000000e-001,-4.5000000e-001,-5.0000000e-002</node>
			<node id="17"> 2.5000000e-001,-4.5000000e-001,-5.0000000e-002</node>
			<node id="18"> 3.0000000e-001,-4.5000000e-001,-5.0000000e-002</node>
			<node id="19"> 3.5000000e-001,-4.5000000e-001,-5.0000000e-002</node>
			<node id="20"> 4.0000000e-001,-4.5000000e-001,-5.0000000e-002</node>
<!-- ... 1062 like lines cut -->
		</Nodes>
		<Elements type="hex8" mat="1" elset="Part16">
			<elem id="1">     1,     2,    13,    12,   122,   123,   134,   133</elem>
			<elem id="2">     2,     3,    14,    13,   123,   124,   135,   134</elem>
			<elem id="3">     3,     4,    15,    14,   124,   125,   136,   135</elem>
			<elem id="4">     4,     5,    16,    15,   125,   126,   137,   136</elem>
			<elem id="5">     5,     6,    17,    16,   126,   127,   138,   137</elem>
			<elem id="6">     6,     7,    18,    17,   127,   128,   139,   138</elem>
			<elem id="7">     7,     8,    19,    18,   128,   129,   140,   139</elem>
			<elem id="8">     8,     9,    20,    19,   129,   130,   141,   140</elem>
			<elem id="9">     9,    10,    21,    20,   130,   131,   142,   141</elem>
			<elem id="10">    10,    11,    22,    21,   131,   132,   143,   142</elem>
			<elem id="11">    12,    13,    24,    23,   133,   134,   145,   144</elem>
			<elem id="12">    13,    14,    25,    24,   134,   135,   146,   145</elem>
			<elem id="13">    14,    15,    26,    25,   135,   136,   147,   146</elem>
			<elem id="14">    15,    16,    27,    26,   136,   137,   148,   147</elem>
			<elem id="15">    16,    17,    28,    27,   137,   138,   149,   148</elem>
			<elem id="16">    17,    18,    29,    28,   138,   139,   150,   149</elem>
			<elem id="17">    18,    19,    30,    29,   139,   140,   151,   150</elem>
			<elem id="18">    19,    20,    31,    30,   140,   141,   152,   151</elem>
			<elem id="19">    20,    21,    32,    31,   141,   142,   153,   152</elem>
			<elem id="20">    21,    22,    33,    32,   142,   143,   154,   153</elem>
<!-- ... 480 like lines cut -->
		</Elements>
	</Geometry>
	<Boundary>
		<fix bc="z">
			<node id="1"/>
			<node id="2"/>
			<node id="3"/>
			<node id="4"/>
			<node id="5"/>
			<node id="6"/>
			<node id="7"/>
			<node id="8"/>
			<node id="9"/>
			<node id="10"/>
			<node id="11"/>
			<node id="12"/>
			<node id="13"/>
			<node id="14"/>
			<node id="15"/>
			<node id="16"/>
			<node id="17"/>
			<node id="18"/>
			<node id="19"/>
			<node id="20"/>
<!-- ... 1062 like lines cut -->
		</fix>
		<fix bc="x">
			<node id="1"/>
			<node id="12"/>
			<node id="23"/>
			<node id="34"/>
			<node id="45"/>
			<node id="56"/>
			<node id="67"/>
			<node id="78"/>
			<node id="89"/>
			<node id="100"/>
			<node id="111"/>
			<node id="122"/>
			<node id="133"/>
			<node id="144"/>
			<node id="155"/>
			<node id="166"/>
			<node id="177"/>
			<node id="188"/>
			<node id="199"/>
			<node id="210"/>
<!-- ... 62 like lines cut -->
		</fix>
		<fix bc="y">
			<node id="111"/>
			<node id="112"/>
			<node id="113"/>
			<node id="114"/>
			<node id="115"/>
			<node id="116"/>
			<node id="117"/>
			<node id="118"/>
			<node id="119"/>
			<node id="120"/>
			<node id="121"/>
			<node id="232"/>
			<node id="233"/>
			<node id="234"/>
			<node id="235"/>
			<node id="236"/>
			<node id="237"/>
			<node id="238"/>
			<node id="239"/>
			<node id="240"/>
<!-- ... 42 like lines cut -->
		</fix>
	</Boundary>
	<Contact>
		<contact type="rigid_wall">
			<laugon>0</laugon>
			<tolerance>0.01</tolerance>
			<penalty>1000</penalty>
			<plane lc="1">0,1,0,-1</plane>
			<surface>
				<quad4 id="1">  1041,  1042,  1063,  1062</quad4>
				<quad4 id="2">  1042,  1043,  1064,  1063</quad4>
				<quad4 id="3">  1043,  1044,  1065,  1064</quad4>
				<quad4 id="4">  1044,  1045,  1066,  1065</quad4>
				<quad4 id="5">  1045,  1046,  1067,  1066</quad4>
				<quad4 id="6">  1046,  1047,  1068,  1067</quad4>
				<quad4 id="7">  1047,  1048,  1069,  1068</quad4>
				<quad4 id="8">  1048,  1049,  1070,  1069</quad4>
				<quad4 id="9">  1049,  1050,  1071,  1070</quad4>
				<quad4 id="10">  1051,  1052,  1073,  1072</quad4>
				<quad4 id="11">  1050,  1051,  1072,  1071</quad4>
				<quad4 id="12">  1052,  1053,  1074,  1073</quad4>
				<quad4 id="13">  1053,  1054,  1075,  1074</quad4>
				<quad4 id="14">  1054,  1055,  1076,  1075</quad4>
				<quad4 id="15">  1055,  1056,  1077,  1076</quad4>
				<quad4 id="16">  1056,  1057,  1078,  1077</quad4>
				<quad4 id="17">  1057,  1058,  1079,  1078</quad4>
				<quad4 id="18">  1058,  1059,  1080,  1079</quad4>
				<quad4 id="19">  1059,  1060,  1081,  1080</quad4>
				<quad4 id="20">  1060,  1061,  1082,  1081</quad4>
			</surface>
		</contact>
	</Contact>
	<LoadData>
		<loadcurve id="1" type="linear">
			<loadpoint>0,0</loadpoint>
			<loadpoint>1,0.4</loadpoint>
		</loadcurve>
	</LoadData>
	<Output>
		<plotfile type="febio">
			<var type="displacement"/>
			<var type="reaction forces"/>
			<var type="relative volume"/>
			<var type="stress"/>
		</plotfile>
		<logfile>
			<element_data data="sy">480</element_data>
		</logfile>		
	</Output>
</febio_spec>
