<?xml version="1.0" encoding="ISO-8859-1"?>
<!--
Problem Description:
	1D Permeation with prescribed upstream flux and clamped condition.
	This problem demonstrates how to prescribe boundary conditions for a permeation problem
	where the fluid flux and solid displacement are prescribed upstream.
Main Features:
	Permeability
Secondary Features:
	Must point curve
Materials:
	Biphasic
	Neo-Hookean
Degrees of Freedom: 156
Results:
	Steps Completed: 28
	Equilibrium Iterations: 72
	Right Hand Evaluations: 100
	Siffness Reformations: 72
	Other:
		The maximum total fluid flux is 2.0e-4 at time t = 210.
Comments:
	
-->
<febio_spec version="2.5">
	<Module type="biphasic"/>
	<Control>
		<time_steps>10000</time_steps>
		<step_size>0.1</step_size>
		<max_refs>15</max_refs>
		<max_ups>0</max_ups>
		<diverge_reform>1</diverge_reform>
		<reform_each_time_step>1</reform_each_time_step>
		<dtol>0.001</dtol>
		<etol>0.01</etol>
		<rtol>0</rtol>
		<ptol>0.01</ptol>
		<lstol>0.9</lstol>
		<min_residual>1e-020</min_residual>
		<qnmethod>1</qnmethod>
		<time_stepper>
			<dtmin>0.01</dtmin>
			<dtmax lc="1"></dtmax>
			<max_retries>5</max_retries>
			<opt_iter>10</opt_iter>
		</time_stepper>
		<symmetric_biphasic>0</symmetric_biphasic>
	</Control>
	<Globals>
		<Constants>
			<T>0</T>
			<R>0</R>
			<Fc>0</Fc>
		</Constants>
	</Globals>
	<Material>
		<material id="1" name="Biphasic material" type="biphasic">
			<phi0>0.2</phi0>
			<fluid_density>1</fluid_density>
			<solid type="neo-Hookean">
				<density>1</density>
				<E>1</E>
				<v>0</v>
			</solid>
			<permeability type="perm-const-iso">
				<perm>0.001</perm>
			</permeability>
		</material>
	</Material>
	<Geometry>
		<Nodes name="bp13">
			<node id="1">-5.0000000e-001,-5.0000000e-001, 0.0000000e+000</node>
			<node id="2">-5.0000000e-001,-5.0000000e-001, 7.1619218e-003</node>
			<node id="3">-5.0000000e-001,-5.0000000e-001, 1.7188612e-002</node>
			<node id="4">-5.0000000e-001,-5.0000000e-001, 3.1225979e-002</node>
			<node id="5">-5.0000000e-001,-5.0000000e-001, 5.0878292e-002</node>
			<node id="6">-5.0000000e-001,-5.0000000e-001, 7.8391531e-002</node>
			<node id="7">-5.0000000e-001,-5.0000000e-001, 1.1691007e-001</node>
			<node id="8">-5.0000000e-001,-5.0000000e-001, 1.7083601e-001</node>
			<node id="9">-5.0000000e-001,-5.0000000e-001, 2.4633234e-001</node>
			<node id="10">-5.0000000e-001,-5.0000000e-001, 3.5202720e-001</node>
			<node id="11">-5.0000000e-001,-5.0000000e-001, 5.0000000e-001</node>
			<node id="12">-5.0000000e-001,-5.0000000e-001, 6.4797280e-001</node>
			<node id="13">-5.0000000e-001,-5.0000000e-001, 7.5366766e-001</node>
			<node id="14">-5.0000000e-001,-5.0000000e-001, 8.2916399e-001</node>
			<node id="15">-5.0000000e-001,-5.0000000e-001, 8.8308993e-001</node>
			<node id="16">-5.0000000e-001,-5.0000000e-001, 9.2160847e-001</node>
			<node id="17">-5.0000000e-001,-5.0000000e-001, 9.4912171e-001</node>
			<node id="18">-5.0000000e-001,-5.0000000e-001, 9.6877402e-001</node>
			<node id="19">-5.0000000e-001,-5.0000000e-001, 9.8281139e-001</node>
			<node id="20">-5.0000000e-001,-5.0000000e-001, 9.9283808e-001</node>
<!-- ... 64 like lines cut -->
		</Nodes>
		<Elements type="hex8" mat="1" name="Part1">
			<elem id="1">     1,    43,    64,    22,     2,    44,    65,    23</elem>
			<elem id="2">     2,    44,    65,    23,     3,    45,    66,    24</elem>
			<elem id="3">     3,    45,    66,    24,     4,    46,    67,    25</elem>
			<elem id="4">     4,    46,    67,    25,     5,    47,    68,    26</elem>
			<elem id="5">     5,    47,    68,    26,     6,    48,    69,    27</elem>
			<elem id="6">     6,    48,    69,    27,     7,    49,    70,    28</elem>
			<elem id="7">     7,    49,    70,    28,     8,    50,    71,    29</elem>
			<elem id="8">     8,    50,    71,    29,     9,    51,    72,    30</elem>
			<elem id="9">     9,    51,    72,    30,    10,    52,    73,    31</elem>
			<elem id="10">    10,    52,    73,    31,    11,    53,    74,    32</elem>
			<elem id="11">    11,    53,    74,    32,    12,    54,    75,    33</elem>
			<elem id="12">    12,    54,    75,    33,    13,    55,    76,    34</elem>
			<elem id="13">    13,    55,    76,    34,    14,    56,    77,    35</elem>
			<elem id="14">    14,    56,    77,    35,    15,    57,    78,    36</elem>
			<elem id="15">    15,    57,    78,    36,    16,    58,    79,    37</elem>
			<elem id="16">    16,    58,    79,    37,    17,    59,    80,    38</elem>
			<elem id="17">    17,    59,    80,    38,    18,    60,    81,    39</elem>
			<elem id="18">    18,    60,    81,    39,    19,    61,    82,    40</elem>
			<elem id="19">    19,    61,    82,    40,    20,    62,    83,    41</elem>
			<elem id="20">    20,    62,    83,    41,    21,    63,    84,    42</elem>
		</Elements>
		<NodeSet name="FixedDisplacement01">
			<node id="1"/>
			<node id="2"/>
			<node id="3"/>
			<node id="4"/>
			<node id="5"/>
			<node id="6"/>
			<node id="7"/>
			<node id="8"/>
			<node id="9"/>
			<node id="10"/>
			<node id="11"/>
			<node id="12"/>
			<node id="13"/>
			<node id="14"/>
			<node id="15"/>
			<node id="16"/>
			<node id="17"/>
			<node id="18"/>
			<node id="19"/>
			<node id="20"/>
<!-- ... 64 like lines cut -->
		</NodeSet>
		<NodeSet name="FixedDisplacement02">
			<node id="1"/>
			<node id="2"/>
			<node id="3"/>
			<node id="4"/>
			<node id="5"/>
			<node id="6"/>
			<node id="7"/>
			<node id="8"/>
			<node id="9"/>
			<node id="10"/>
			<node id="11"/>
			<node id="12"/>
			<node id="13"/>
			<node id="14"/>
			<node id="15"/>
			<node id="16"/>
			<node id="17"/>
			<node id="18"/>
			<node id="19"/>
			<node id="20"/>
<!-- ... 64 like lines cut -->
		</NodeSet>
		<NodeSet name="FixedDisplacement03">
			<node id="1"/>
			<node id="21"/>
			<node id="22"/>
			<node id="42"/>
			<node id="43"/>
			<node id="63"/>
			<node id="64"/>
			<node id="84"/>
		</NodeSet>
		<NodeSet name="FixedFluidPressure01">
			<node id="21"/>
			<node id="42"/>
			<node id="63"/>
			<node id="84"/>
		</NodeSet>
		<Surface name="FluidFlux1">
			<quad4 id="1">    22,    64,    43,     1</quad4>
		</Surface>
		<Surface name="NormalTraction1">
			<quad4 id="1">    22,    64,    43,     1</quad4>
		</Surface>
		<ElementSet name="unnamed_set01">
			<elem id="1"/>
		</ElementSet>
	</Geometry>
	<Boundary>
		<fix bc="x" node_set="FixedDisplacement01"/>
		<fix bc="y" node_set="FixedDisplacement02"/>
		<fix bc="z" node_set="FixedDisplacement03"/>
		<fix bc="p" node_set="FixedFluidPressure01"/>
	</Boundary>
	<Loads>
		<surface_load type="fluidflux" surface="FluidFlux1">
			<flux lc="2">1</flux>
			<linear>0</linear>
			<mixture>0</mixture>
		</surface_load>
		<surface_load type="normal_traction" surface="NormalTraction1">
			<traction lc="3">1</traction>
			<linear>0</linear>
			<effective>1</effective>
		</surface_load>
	</Loads>
	<LoadData>
		<loadcurve id="1" type="step">
			<point>0,0</point>
			<point>1,0.1</point>
			<point>1000,100</point>
		</loadcurve>
		<loadcurve id="2" type="smooth">
			<point>0,0</point>
			<point>1,-0.0002</point>
		</loadcurve>
		<loadcurve id="3" type="smooth">
			<point>0,0</point>
			<point>1,0</point>
		</loadcurve>
	</LoadData>
	<Output>
		<plotfile type="febio">
			<var type="displacement"/>
			<var type="relative volume"/>
			<var type="stress"/>
			<var type="effective fluid pressure"/>
			<var type="fluid pressure"/>
			<var type="fluid flux"/>
		</plotfile>
		<logfile>
			<element_data data="p" elem_set="unnamed_set01"/>
		</logfile>
	</Output>
</febio_spec>
