<?xml version="1.0" encoding="ISO-8859-1"?>
<!--
Problem Description:
	3D axisymmetric analysis of cylindrical plug, modeled as wedge
	with symmetry plane, loaded under displacement control
Main Features:
	Symmetry plane involving solid and shell nodes
Materials:
	Biphasic
	neo-Hookean
Degrees of Freedom: 1959
Results:
	Steps Completed: 10
	Equilibrium Iterations: 41
	Right Hand Evaluations: 61
	Siffness Reformations: 41
	Other:
		The maximum radial (x-)displacement at t=1 is 0.1817.
Comments:
	The solid deformation and fluid pressure exhibit axisymmetry.
-->
<febio_spec version="2.5">
	<Module type="biphasic"/>
	<Control>
		<time_steps>10</time_steps>
		<step_size>0.1</step_size>
		<max_refs>15</max_refs>
		<max_ups>0</max_ups>
		<diverge_reform>1</diverge_reform>
		<reform_each_time_step>1</reform_each_time_step>
		<dtol>0.001</dtol>
		<etol>0.01</etol>
		<rtol>0</rtol>
		<ptol>0.01</ptol>
		<lstol>0.9</lstol>
		<min_residual>1e-020</min_residual>
		<qnmethod>1</qnmethod>
		<time_stepper>
			<dtmin>0.01</dtmin>
			<dtmax>0.1</dtmax>
			<max_retries>5</max_retries>
			<opt_iter>10</opt_iter>
		</time_stepper>
		<symmetric_stiffness>0</symmetric_stiffness>
	</Control>
	<Globals>
		<Constants>
			<T>0</T>
			<R>0</R>
			<Fc>0</Fc>
		</Constants>
	</Globals>
	<Material>
		<material id="1" name="Biphasic solid" type="biphasic">
			<phi0>0</phi0>
			<fluid_density>1</fluid_density>
			<solid type="neo-Hookean">
				<density>1</density>
				<E>1</E>
				<v>0</v>
			</solid>
			<permeability type="perm-const-iso">
				<perm>0.001</perm>
			</permeability>
		</material>
		<material id="2" name="Biphasic shell" type="biphasic">
			<phi0>0</phi0>
			<fluid_density>1</fluid_density>
			<solid type="neo-Hookean">
				<density>1</density>
				<E>1</E>
				<v>0</v>
			</solid>
			<permeability type="perm-const-iso">
				<perm>0.001</perm>
			</permeability>
		</material>
	</Material>
	<Geometry>
		<Nodes name="Object01">
			<node id="1"> 1.0000000e+000, 0.0000000e+000, 0.0000000e+000</node>
			<node id="2"> 9.9862953e-001, 5.2335955e-002, 0.0000000e+000</node>
			<node id="3"> 1.0000000e+000, 0.0000000e+000, 6.2500000e-002</node>
			<node id="4"> 9.9862953e-001, 5.2335955e-002, 6.2500000e-002</node>
			<node id="5"> 1.0000000e+000, 0.0000000e+000, 1.2500000e-001</node>
			<node id="6"> 9.9862953e-001, 5.2335955e-002, 1.2500000e-001</node>
			<node id="7"> 1.0000000e+000, 0.0000000e+000, 1.8750000e-001</node>
			<node id="8"> 9.9862953e-001, 5.2335955e-002, 1.8750000e-001</node>
			<node id="9"> 1.0000000e+000, 0.0000000e+000, 2.5000000e-001</node>
			<node id="10"> 9.9862953e-001, 5.2335955e-002, 2.5000000e-001</node>
			<node id="11"> 1.0000000e+000, 0.0000000e+000, 3.1250000e-001</node>
			<node id="12"> 9.9862953e-001, 5.2335955e-002, 3.1250000e-001</node>
			<node id="13"> 1.0000000e+000, 0.0000000e+000, 3.7500000e-001</node>
			<node id="14"> 9.9862953e-001, 5.2335955e-002, 3.7500000e-001</node>
			<node id="15"> 1.0000000e+000, 0.0000000e+000, 4.3750000e-001</node>
			<node id="16"> 9.9862953e-001, 5.2335955e-002, 4.3750000e-001</node>
			<node id="17"> 1.0000000e+000, 0.0000000e+000, 5.0000000e-001</node>
			<node id="18"> 9.9862953e-001, 5.2335955e-002, 5.0000000e-001</node>
			<node id="19"> 1.0000000e+000, 0.0000000e+000, 5.6250000e-001</node>
			<node id="20"> 9.9862953e-001, 5.2335955e-002, 5.6250000e-001</node>
<!-- ... 541 like lines cut -->
		</Nodes>
		<Elements type="quad4" mat="2" name="Part2">
			<elem id="1">     1,     2,     4,     3</elem>
			<elem id="2">     3,     4,     6,     5</elem>
			<elem id="3">     5,     6,     8,     7</elem>
			<elem id="4">     7,     8,    10,     9</elem>
			<elem id="5">     9,    10,    12,    11</elem>
			<elem id="6">    11,    12,    14,    13</elem>
			<elem id="7">    13,    14,    16,    15</elem>
			<elem id="8">    15,    16,    18,    17</elem>
			<elem id="9">    17,    18,    20,    19</elem>
			<elem id="10">    19,    20,    22,    21</elem>
			<elem id="11">    21,    22,    24,    23</elem>
			<elem id="12">    23,    24,    26,    25</elem>
			<elem id="13">    25,    26,    28,    27</elem>
			<elem id="14">    27,    28,    30,    29</elem>
			<elem id="15">    29,    30,    32,    31</elem>
			<elem id="16">    31,    32,    34,    33</elem>
		</Elements>
		<Elements type="penta6" mat="1" name="Part1">
			<elem id="17">    35,    36,    37,    66,    67,    68</elem>
			<elem id="18">    66,    67,    68,    97,    98,    99</elem>
			<elem id="19">    97,    98,    99,   128,   129,   130</elem>
			<elem id="20">   128,   129,   130,   159,   160,   161</elem>
			<elem id="21">   159,   160,   161,   190,   191,   192</elem>
			<elem id="22">   190,   191,   192,   221,   222,   223</elem>
			<elem id="23">   221,   222,   223,   252,   253,   254</elem>
			<elem id="24">   252,   253,   254,   283,   284,   285</elem>
			<elem id="25">   283,   284,   285,   314,   315,   316</elem>
			<elem id="26">   314,   315,   316,   345,   346,   347</elem>
			<elem id="27">   345,   346,   347,   376,   377,   378</elem>
			<elem id="28">   376,   377,   378,   407,   408,   409</elem>
			<elem id="29">   407,   408,   409,   438,   439,   440</elem>
			<elem id="30">   438,   439,   440,   469,   470,   471</elem>
			<elem id="31">   469,   470,   471,   500,   501,   502</elem>
			<elem id="32">   500,   501,   502,   531,   532,   533</elem>
		</Elements>
		<Elements type="hex8" mat="1" name="Part1__2">
			<elem id="33">    36,    38,    39,    37,    67,    69,    70,    68</elem>
			<elem id="34">    38,    40,    41,    39,    69,    71,    72,    70</elem>
			<elem id="35">    40,    42,    43,    41,    71,    73,    74,    72</elem>
			<elem id="36">    42,    44,    45,    43,    73,    75,    76,    74</elem>
			<elem id="37">    44,    46,    47,    45,    75,    77,    78,    76</elem>
			<elem id="38">    46,    48,    49,    47,    77,    79,    80,    78</elem>
			<elem id="39">    48,    50,    51,    49,    79,    81,    82,    80</elem>
			<elem id="40">    50,    52,    53,    51,    81,    83,    84,    82</elem>
			<elem id="41">    52,    54,    55,    53,    83,    85,    86,    84</elem>
			<elem id="42">    54,    56,    57,    55,    85,    87,    88,    86</elem>
			<elem id="43">    56,    58,    59,    57,    87,    89,    90,    88</elem>
			<elem id="44">    58,    60,    61,    59,    89,    91,    92,    90</elem>
			<elem id="45">    60,    62,    63,    61,    91,    93,    94,    92</elem>
			<elem id="46">    62,    64,    65,    63,    93,    95,    96,    94</elem>
			<elem id="47">    64,     1,     2,    65,    95,     3,     4,    96</elem>
			<elem id="48">    67,    69,    70,    68,    98,   100,   101,    99</elem>
			<elem id="49">    69,    71,    72,    70,   100,   102,   103,   101</elem>
			<elem id="50">    71,    73,    74,    72,   102,   104,   105,   103</elem>
			<elem id="51">    73,    75,    76,    74,   104,   106,   107,   105</elem>
			<elem id="52">    75,    77,    78,    76,   106,   108,   109,   107</elem>
<!-- ... 220 like lines cut -->
		</Elements>
		<NodeSet name="FixedDisplacement04">
			<node id="1"/>
			<node id="3"/>
			<node id="5"/>
			<node id="7"/>
			<node id="9"/>
			<node id="11"/>
			<node id="13"/>
			<node id="15"/>
			<node id="17"/>
			<node id="19"/>
			<node id="21"/>
			<node id="23"/>
			<node id="25"/>
			<node id="27"/>
			<node id="29"/>
			<node id="31"/>
			<node id="33"/>
			<node id="35"/>
			<node id="36"/>
			<node id="38"/>
<!-- ... 269 like lines cut -->
		</NodeSet>
		<NodeSet name="FixedDisplacement05">
			<node id="1"/>
			<node id="2"/>
			<node id="35"/>
			<node id="36"/>
			<node id="37"/>
			<node id="38"/>
			<node id="39"/>
			<node id="40"/>
			<node id="41"/>
			<node id="42"/>
			<node id="43"/>
			<node id="44"/>
			<node id="45"/>
			<node id="46"/>
			<node id="47"/>
			<node id="48"/>
			<node id="49"/>
			<node id="50"/>
			<node id="51"/>
			<node id="52"/>
<!-- ... 13 like lines cut -->
		</NodeSet>
		<NodeSet name="FixedDisplacement06">
			<node id="35"/>
			<node id="66"/>
			<node id="97"/>
			<node id="128"/>
			<node id="159"/>
			<node id="190"/>
			<node id="221"/>
			<node id="252"/>
			<node id="283"/>
			<node id="314"/>
			<node id="345"/>
			<node id="376"/>
			<node id="407"/>
			<node id="438"/>
			<node id="469"/>
			<node id="500"/>
			<node id="531"/>
		</NodeSet>
		<NodeSet name="FixedFluidPressure01">
			<node id="1"/>
			<node id="2"/>
			<node id="3"/>
			<node id="4"/>
			<node id="5"/>
			<node id="6"/>
			<node id="7"/>
			<node id="8"/>
			<node id="9"/>
			<node id="10"/>
			<node id="11"/>
			<node id="12"/>
			<node id="13"/>
			<node id="14"/>
			<node id="15"/>
			<node id="16"/>
			<node id="17"/>
			<node id="18"/>
			<node id="19"/>
			<node id="20"/>
<!-- ... 14 like lines cut -->
		</NodeSet>
		<NodeSet name="PrescribedDisplacement01">
			<node id="33"/>
			<node id="34"/>
			<node id="531"/>
			<node id="532"/>
			<node id="533"/>
			<node id="534"/>
			<node id="535"/>
			<node id="536"/>
			<node id="537"/>
			<node id="538"/>
			<node id="539"/>
			<node id="540"/>
			<node id="541"/>
			<node id="542"/>
			<node id="543"/>
			<node id="544"/>
			<node id="545"/>
			<node id="546"/>
			<node id="547"/>
			<node id="548"/>
<!-- ... 13 like lines cut -->
		</NodeSet>
		<Surface name="SymmetryPlane01">
			<quad4 id="1">    35,    66,    68,    37</quad4>
			<quad4 id="2">    39,    37,    68,    70</quad4>
			<quad4 id="3">    41,    39,    70,    72</quad4>
			<quad4 id="4">    43,    41,    72,    74</quad4>
			<quad4 id="5">    45,    43,    74,    76</quad4>
			<quad4 id="6">    47,    45,    76,    78</quad4>
			<quad4 id="7">    49,    47,    78,    80</quad4>
			<quad4 id="8">    51,    49,    80,    82</quad4>
			<quad4 id="9">    53,    51,    82,    84</quad4>
			<quad4 id="10">    55,    53,    84,    86</quad4>
			<quad4 id="11">    57,    55,    86,    88</quad4>
			<quad4 id="12">    59,    57,    88,    90</quad4>
			<quad4 id="13">    61,    59,    90,    92</quad4>
			<quad4 id="14">    63,    61,    92,    94</quad4>
			<quad4 id="15">    65,    63,    94,    96</quad4>
			<quad4 id="16">     2,    65,    96,     4</quad4>
			<quad4 id="17">    66,    97,    99,    68</quad4>
			<quad4 id="18">    70,    68,    99,   101</quad4>
			<quad4 id="19">    72,    70,   101,   103</quad4>
			<quad4 id="20">    74,    72,   103,   105</quad4>
<!-- ... 236 like lines cut -->
		</Surface>
	</Geometry>
	<MeshData>
		<ElementData var="shell thickness" elem_set="Part2">
			<elem lid="1">0.01,0.01,0.01,0.01</elem>
			<elem lid="2">0.01,0.01,0.01,0.01</elem>
			<elem lid="3">0.01,0.01,0.01,0.01</elem>
			<elem lid="4">0.01,0.01,0.01,0.01</elem>
			<elem lid="5">0.01,0.01,0.01,0.01</elem>
			<elem lid="6">0.01,0.01,0.01,0.01</elem>
			<elem lid="7">0.01,0.01,0.01,0.01</elem>
			<elem lid="8">0.01,0.01,0.01,0.01</elem>
			<elem lid="9">0.01,0.01,0.01,0.01</elem>
			<elem lid="10">0.01,0.01,0.01,0.01</elem>
			<elem lid="11">0.01,0.01,0.01,0.01</elem>
			<elem lid="12">0.01,0.01,0.01,0.01</elem>
			<elem lid="13">0.01,0.01,0.01,0.01</elem>
			<elem lid="14">0.01,0.01,0.01,0.01</elem>
			<elem lid="15">0.01,0.01,0.01,0.01</elem>
			<elem lid="16">0.01,0.01,0.01,0.01</elem>
		</ElementData>
	</MeshData>
	<Boundary>
		<fix bc="y" node_set="FixedDisplacement04"/>
		<fix bc="x,y,z" node_set="FixedDisplacement05"/>
		<fix bc="x,y" node_set="FixedDisplacement06"/>
		<fix bc="p" node_set="FixedFluidPressure01"/>
		<prescribe bc="z" node_set="PrescribedDisplacement01">
			<scale lc="1">-0.25</scale>
			<relative>0</relative>
		</prescribe>
	</Boundary>
	<Contact>
	</Contact>
	<Constraints>
		<constraint type="symmetry plane" name="SymmetryPlane01" surface="SymmetryPlane01">
			<laugon>1</laugon>
			<tol>1e-006</tol>
			<penalty>1e+006</penalty>
			<minaug>0</minaug>
			<maxaug>50</maxaug>
		</constraint>
	</Constraints>
	<LoadData>
		<loadcurve id="1" type="smooth">
			<point>0,0</point>
			<point>1,1</point>
		</loadcurve>
	</LoadData>
	<Output>
		<plotfile type="febio">
			<var type="displacement"/>
			<var type="relative volume"/>
			<var type="stress"/>
			<var type="effective fluid pressure"/>
			<var type="fluid pressure"/>
			<var type="fluid flux"/>
		</plotfile>
	</Output>
</febio_spec>
