<?xml version="1.0" encoding="ISO-8859-1"?>
<febio_spec version="2.5">
	<Module type="solid"/>
	<Control>
		<time_steps>75</time_steps>
		<step_size>0.1</step_size>
		<max_refs>15</max_refs>
		<max_ups>10</max_ups>
		<diverge_reform>1</diverge_reform>
		<reform_each_time_step>1</reform_each_time_step>
		<dtol>0.001</dtol>
		<etol>0.01</etol>
		<rtol>0</rtol>
		<lstol>0.9</lstol>
		<min_residual>1e-020</min_residual>
		<qnmethod>0</qnmethod>
		<analysis type="static"/>
	</Control>
	<Globals>
		<Constants>
			<T>0</T>
			<R>0</R>
			<Fc>0</Fc>
		</Constants>
	</Globals>
	<Material>
		<material id="1" name="Material 1" type="neo-Hookean">
			<density>1</density>
			<E>1</E>
			<v>0</v>
		</material>
		<material id="2" name="Material 2" type="rigid body">
			<density>1</density>
		</material>
	</Material>
	<Geometry>
		<Nodes name="co19">
			<node id="1"> 0.0000000e+000, 0.0000000e+000, 0.0000000e+000</node>
			<node id="2"> 0.0000000e+000, 0.0000000e+000, 2.0000000e-001</node>
			<node id="3"> 0.0000000e+000, 0.0000000e+000, 4.0000000e-001</node>
			<node id="4"> 0.0000000e+000, 0.0000000e+000, 6.0000000e-001</node>
			<node id="5"> 0.0000000e+000, 0.0000000e+000, 8.0000000e-001</node>
			<node id="6"> 0.0000000e+000, 0.0000000e+000, 1.0000000e+000</node>
			<node id="7"> 0.0000000e+000, 0.0000000e+000, 1.2000000e+000</node>
			<node id="8"> 0.0000000e+000, 0.0000000e+000, 1.4000000e+000</node>
			<node id="9"> 0.0000000e+000, 0.0000000e+000, 1.6000000e+000</node>
			<node id="10"> 0.0000000e+000, 0.0000000e+000, 1.8000000e+000</node>
			<node id="11"> 0.0000000e+000, 0.0000000e+000, 2.0000000e+000</node>
			<node id="12"> 0.0000000e+000, 2.0000000e-001, 0.0000000e+000</node>
			<node id="13"> 0.0000000e+000, 2.0000000e-001, 2.0000000e-001</node>
			<node id="14"> 0.0000000e+000, 2.0000000e-001, 4.0000000e-001</node>
			<node id="15"> 0.0000000e+000, 2.0000000e-001, 6.0000000e-001</node>
			<node id="16"> 0.0000000e+000, 2.0000000e-001, 8.0000000e-001</node>
			<node id="17"> 0.0000000e+000, 2.0000000e-001, 1.0000000e+000</node>
			<node id="18"> 0.0000000e+000, 2.0000000e-001, 1.2000000e+000</node>
			<node id="19"> 0.0000000e+000, 2.0000000e-001, 1.4000000e+000</node>
			<node id="20"> 0.0000000e+000, 2.0000000e-001, 1.6000000e+000</node>
<!-- ... 384 like lines cut -->
		</Nodes>
		<Elements type="hex8" mat="1" name="Part13">
			<elem id="1">     1,    67,    78,    12,     2,    68,    79,    13</elem>
			<elem id="2">     2,    68,    79,    13,     3,    69,    80,    14</elem>
			<elem id="3">     3,    69,    80,    14,     4,    70,    81,    15</elem>
			<elem id="4">     4,    70,    81,    15,     5,    71,    82,    16</elem>
			<elem id="5">     5,    71,    82,    16,     6,    72,    83,    17</elem>
			<elem id="6">     6,    72,    83,    17,     7,    73,    84,    18</elem>
			<elem id="7">     7,    73,    84,    18,     8,    74,    85,    19</elem>
			<elem id="8">     8,    74,    85,    19,     9,    75,    86,    20</elem>
			<elem id="9">     9,    75,    86,    20,    10,    76,    87,    21</elem>
			<elem id="10">    10,    76,    87,    21,    11,    77,    88,    22</elem>
			<elem id="11">    12,    78,    89,    23,    13,    79,    90,    24</elem>
			<elem id="12">    13,    79,    90,    24,    14,    80,    91,    25</elem>
			<elem id="13">    14,    80,    91,    25,    15,    81,    92,    26</elem>
			<elem id="14">    15,    81,    92,    26,    16,    82,    93,    27</elem>
			<elem id="15">    16,    82,    93,    27,    17,    83,    94,    28</elem>
			<elem id="16">    17,    83,    94,    28,    18,    84,    95,    29</elem>
			<elem id="17">    18,    84,    95,    29,    19,    85,    96,    30</elem>
			<elem id="18">    19,    85,    96,    30,    20,    86,    97,    31</elem>
			<elem id="19">    20,    86,    97,    31,    21,    87,    98,    32</elem>
			<elem id="20">    21,    87,    98,    32,    22,    88,    99,    33</elem>
<!-- ... 230 like lines cut -->
		</Elements>
		<Elements type="hex8" mat="2" name="Part14">
			<elem id="251">   397,   401,   403,   399,   398,   402,   404,   400</elem>
		</Elements>
		<NodeSet name="FixedDisplacement01">
			<node id="1"/>
			<node id="2"/>
			<node id="3"/>
			<node id="4"/>
			<node id="5"/>
			<node id="6"/>
			<node id="7"/>
			<node id="8"/>
			<node id="9"/>
			<node id="10"/>
			<node id="11"/>
			<node id="12"/>
			<node id="13"/>
			<node id="14"/>
			<node id="15"/>
			<node id="16"/>
			<node id="17"/>
			<node id="18"/>
			<node id="19"/>
			<node id="20"/>
<!-- ... 76 like lines cut -->
		</NodeSet>
		<NodeSet name="FixedDisplacement02">
			<node id="11"/>
			<node id="22"/>
			<node id="33"/>
			<node id="44"/>
			<node id="55"/>
			<node id="66"/>
			<node id="67"/>
			<node id="68"/>
			<node id="69"/>
			<node id="70"/>
			<node id="71"/>
			<node id="72"/>
			<node id="73"/>
			<node id="74"/>
			<node id="75"/>
			<node id="76"/>
			<node id="77"/>
			<node id="88"/>
			<node id="99"/>
			<node id="110"/>
<!-- ... 66 like lines cut -->
		</NodeSet>
		<NodeSet name="PrescribedBC52">
			<node id="11"/>
			<node id="22"/>
			<node id="33"/>
			<node id="44"/>
			<node id="55"/>
			<node id="66"/>
			<node id="77"/>
			<node id="88"/>
			<node id="99"/>
			<node id="110"/>
			<node id="121"/>
			<node id="132"/>
			<node id="143"/>
			<node id="154"/>
			<node id="165"/>
			<node id="176"/>
			<node id="187"/>
			<node id="198"/>
			<node id="209"/>
			<node id="220"/>
<!-- ... 16 like lines cut -->
		</NodeSet>
		<Surface name="MasterSurface01">
			<quad4 id="1">   399,   397,   398,   400</quad4>
		</Surface>
		<Surface name="SlaveSurface01">
			<quad4 id="1">   331,   342,   343,   332</quad4>
			<quad4 id="2">   332,   343,   344,   333</quad4>
			<quad4 id="3">   333,   344,   345,   334</quad4>
			<quad4 id="4">   334,   345,   346,   335</quad4>
			<quad4 id="5">   335,   346,   347,   336</quad4>
			<quad4 id="6">   336,   347,   348,   337</quad4>
			<quad4 id="7">   337,   348,   349,   338</quad4>
			<quad4 id="8">   338,   349,   350,   339</quad4>
			<quad4 id="9">   339,   350,   351,   340</quad4>
			<quad4 id="10">   340,   351,   352,   341</quad4>
			<quad4 id="11">   342,   353,   354,   343</quad4>
			<quad4 id="12">   343,   354,   355,   344</quad4>
			<quad4 id="13">   344,   355,   356,   345</quad4>
			<quad4 id="14">   345,   356,   357,   346</quad4>
			<quad4 id="15">   346,   357,   358,   347</quad4>
			<quad4 id="16">   347,   358,   359,   348</quad4>
			<quad4 id="17">   348,   359,   360,   349</quad4>
			<quad4 id="18">   349,   360,   361,   350</quad4>
			<quad4 id="19">   350,   361,   362,   351</quad4>
			<quad4 id="20">   351,   362,   363,   352</quad4>
<!-- ... 30 like lines cut -->
		</Surface>
		<ElementSet name="unnamed_set01">
			<elem id="205"/>
		</ElementSet>
		<SurfacePair name="SlidingInterface01">
			<master surface="MasterSurface01"/>
			<slave surface="SlaveSurface01"/>
		</SurfacePair>
	</Geometry>
	<Boundary>
		<fix bc="x" node_set="FixedDisplacement01"/>
		<fix bc="y" node_set="FixedDisplacement02"/>
		<prescribe bc="z" node_set="PrescribedBC52">
			<scale lc="1">1</scale>
			<relative>0</relative>
		</prescribe>
		<rigid_body mat="2">
			<fixed bc="x"/>
			<fixed bc="y"/>
			<fixed bc="z"/>
			<fixed bc="Rx"/>
			<fixed bc="Ry"/>
			<fixed bc="Rz"/>
		</rigid_body>
	</Boundary>
	<Contact>
		<contact type="sliding-node-on-facet" name="SlidingInterface01" surface_pair="SlidingInterface01">
			<laugon>1</laugon>
			<tolerance>0.1</tolerance>
			<penalty>10</penalty>
			<two_pass>0</two_pass>
			<auto_penalty>0</auto_penalty>
			<fric_coeff>0</fric_coeff>
			<fric_penalty>0</fric_penalty>
			<search_tol>0.01</search_tol>
			<minaug>3</minaug>
			<maxaug>10</maxaug>
			<gaptol>0</gaptol>
			<seg_up>0</seg_up>
		</contact>
	</Contact>
	<LoadData>
		<loadcurve id="1" type="linear">
			<point>0,0</point>
			<point>7.5,-1.5</point>
		</loadcurve>
	</LoadData>
	<Output>
		<plotfile type="febio"/>
		<logfile>
			<element_data data="Ex" elem_set="unnamed_set01"/>
		</logfile>
	</Output>
</febio_spec>
