<?xml version="1.0" encoding="ISO-8859-1"?>
<febio_spec version="2.5">
	<Module type="solid"/>
	<Control>
		<time_steps>50</time_steps>
		<step_size>0.1</step_size>
		<max_refs>15</max_refs>
		<max_ups>10</max_ups>
		<diverge_reform>1</diverge_reform>
		<reform_each_time_step>1</reform_each_time_step>
		<dtol>0.001</dtol>
		<etol>0.01</etol>
		<rtol>0</rtol>
		<lstol>99999</lstol>
		<min_residual>1e-020</min_residual>
		<qnmethod>0</qnmethod>
		<analysis type="dynamic"/>
		<alpha>1</alpha>
		<beta>0.25</beta>
		<gamma>0.5</gamma>
	</Control>
	<Globals>
		<Constants>
			<T>0</T>
			<R>0</R>
			<Fc>0</Fc>
		</Constants>
	</Globals>
	<Material>
		<material id="1" name="Material 1" type="neo-Hookean">
			<density>1</density>
			<E>500</E>
			<v>0.4</v>
		</material>
		<material id="2" name="Material 2" type="rigid body">
			<density>1</density>
		</material>
	</Material>
	<Geometry>
		<Nodes name="co30">
			<node id="1">-5.0000000e-001,-5.0000000e-001, 1.3739200e+000</node>
			<node id="2">-5.0000000e-001,-5.0000000e-001, 1.4739200e+000</node>
			<node id="3">-5.0000000e-001,-5.0000000e-001, 1.5739200e+000</node>
			<node id="4">-5.0000000e-001,-5.0000000e-001, 1.6739200e+000</node>
			<node id="5">-5.0000000e-001,-5.0000000e-001, 1.7739200e+000</node>
			<node id="6">-5.0000000e-001,-5.0000000e-001, 1.8739200e+000</node>
			<node id="7">-5.0000000e-001,-5.0000000e-001, 1.9739200e+000</node>
			<node id="8">-5.0000000e-001,-5.0000000e-001, 2.0739200e+000</node>
			<node id="9">-5.0000000e-001,-5.0000000e-001, 2.1739200e+000</node>
			<node id="10">-5.0000000e-001,-5.0000000e-001, 2.2739200e+000</node>
			<node id="11">-5.0000000e-001,-5.0000000e-001, 2.3739200e+000</node>
			<node id="12">-5.0000000e-001,-4.0000000e-001, 1.3739200e+000</node>
			<node id="13">-5.0000000e-001,-4.0000000e-001, 1.4739200e+000</node>
			<node id="14">-5.0000000e-001,-4.0000000e-001, 1.5739200e+000</node>
			<node id="15">-5.0000000e-001,-4.0000000e-001, 1.6739200e+000</node>
			<node id="16">-5.0000000e-001,-4.0000000e-001, 1.7739200e+000</node>
			<node id="17">-5.0000000e-001,-4.0000000e-001, 1.8739200e+000</node>
			<node id="18">-5.0000000e-001,-4.0000000e-001, 1.9739200e+000</node>
			<node id="19">-5.0000000e-001,-4.0000000e-001, 2.0739200e+000</node>
			<node id="20">-5.0000000e-001,-4.0000000e-001, 2.1739200e+000</node>
<!-- ... 2663 like lines cut -->
		</Nodes>
		<Elements type="hex8" mat="1" name="Part21">
			<elem id="1">  1332,  1384,  1386,  1334,  1333,  1385,  1387,  1335</elem>
			<elem id="2">  1334,  1386,  1388,  1336,  1335,  1387,  1389,  1337</elem>
			<elem id="3">  1336,  1388,  1390,  1338,  1337,  1389,  1391,  1339</elem>
			<elem id="4">  1338,  1390,  1392,  1340,  1339,  1391,  1393,  1341</elem>
			<elem id="5">  1340,  1392,  1394,  1342,  1341,  1393,  1395,  1343</elem>
			<elem id="6">  1342,  1394,  1396,  1344,  1343,  1395,  1397,  1345</elem>
			<elem id="7">  1344,  1396,  1398,  1346,  1345,  1397,  1399,  1347</elem>
			<elem id="8">  1346,  1398,  1400,  1348,  1347,  1399,  1401,  1349</elem>
			<elem id="9">  1348,  1400,  1402,  1350,  1349,  1401,  1403,  1351</elem>
			<elem id="10">  1350,  1402,  1404,  1352,  1351,  1403,  1405,  1353</elem>
			<elem id="11">  1352,  1404,  1406,  1354,  1353,  1405,  1407,  1355</elem>
			<elem id="12">  1354,  1406,  1408,  1356,  1355,  1407,  1409,  1357</elem>
			<elem id="13">  1356,  1408,  1410,  1358,  1357,  1409,  1411,  1359</elem>
			<elem id="14">  1358,  1410,  1412,  1360,  1359,  1411,  1413,  1361</elem>
			<elem id="15">  1360,  1412,  1414,  1362,  1361,  1413,  1415,  1363</elem>
			<elem id="16">  1362,  1414,  1416,  1364,  1363,  1415,  1417,  1365</elem>
			<elem id="17">  1364,  1416,  1418,  1366,  1365,  1417,  1419,  1367</elem>
			<elem id="18">  1366,  1418,  1420,  1368,  1367,  1419,  1421,  1369</elem>
			<elem id="19">  1368,  1420,  1422,  1370,  1369,  1421,  1423,  1371</elem>
			<elem id="20">  1370,  1422,  1424,  1372,  1371,  1423,  1425,  1373</elem>
<!-- ... 605 like lines cut -->
		</Elements>
		<Elements type="hex8" mat="2" name="Part22">
			<elem id="626">     1,   122,   133,    12,     2,   123,   134,    13</elem>
			<elem id="627">     2,   123,   134,    13,     3,   124,   135,    14</elem>
			<elem id="628">     3,   124,   135,    14,     4,   125,   136,    15</elem>
			<elem id="629">     4,   125,   136,    15,     5,   126,   137,    16</elem>
			<elem id="630">     5,   126,   137,    16,     6,   127,   138,    17</elem>
			<elem id="631">     6,   127,   138,    17,     7,   128,   139,    18</elem>
			<elem id="632">     7,   128,   139,    18,     8,   129,   140,    19</elem>
			<elem id="633">     8,   129,   140,    19,     9,   130,   141,    20</elem>
			<elem id="634">     9,   130,   141,    20,    10,   131,   142,    21</elem>
			<elem id="635">    10,   131,   142,    21,    11,   132,   143,    22</elem>
			<elem id="636">    12,   133,   144,    23,    13,   134,   145,    24</elem>
			<elem id="637">    13,   134,   145,    24,    14,   135,   146,    25</elem>
			<elem id="638">    14,   135,   146,    25,    15,   136,   147,    26</elem>
			<elem id="639">    15,   136,   147,    26,    16,   137,   148,    27</elem>
			<elem id="640">    16,   137,   148,    27,    17,   138,   149,    28</elem>
			<elem id="641">    17,   138,   149,    28,    18,   139,   150,    29</elem>
			<elem id="642">    18,   139,   150,    29,    19,   140,   151,    30</elem>
			<elem id="643">    19,   140,   151,    30,    20,   141,   152,    31</elem>
			<elem id="644">    20,   141,   152,    31,    21,   142,   153,    32</elem>
			<elem id="645">    21,   142,   153,    32,    22,   143,   154,    33</elem>
<!-- ... 980 like lines cut -->
		</Elements>
		<NodeSet name="FixedDisplacement01">
			<node id="1332"/>
			<node id="1333"/>
			<node id="1334"/>
			<node id="1335"/>
			<node id="1336"/>
			<node id="1337"/>
			<node id="1338"/>
			<node id="1339"/>
			<node id="1340"/>
			<node id="1341"/>
			<node id="1342"/>
			<node id="1343"/>
			<node id="1344"/>
			<node id="1345"/>
			<node id="1346"/>
			<node id="1347"/>
			<node id="1348"/>
			<node id="1349"/>
			<node id="1350"/>
			<node id="1351"/>
<!-- ... 180 like lines cut -->
		</NodeSet>
		<NodeSet name="FixedDisplacement02">
			<node id="1332"/>
			<node id="1333"/>
			<node id="1334"/>
			<node id="1335"/>
			<node id="1336"/>
			<node id="1337"/>
			<node id="1338"/>
			<node id="1339"/>
			<node id="1340"/>
			<node id="1341"/>
			<node id="1342"/>
			<node id="1343"/>
			<node id="1344"/>
			<node id="1345"/>
			<node id="1346"/>
			<node id="1347"/>
			<node id="1348"/>
			<node id="1349"/>
			<node id="1350"/>
			<node id="1351"/>
<!-- ... 180 like lines cut -->
		</NodeSet>
		<NodeSet name="FixedDisplacement03">
			<node id="1332"/>
			<node id="1333"/>
			<node id="1334"/>
			<node id="1335"/>
			<node id="1336"/>
			<node id="1337"/>
			<node id="1338"/>
			<node id="1339"/>
			<node id="1340"/>
			<node id="1341"/>
			<node id="1342"/>
			<node id="1343"/>
			<node id="1344"/>
			<node id="1345"/>
			<node id="1346"/>
			<node id="1347"/>
			<node id="1348"/>
			<node id="1349"/>
			<node id="1350"/>
			<node id="1351"/>
<!-- ... 180 like lines cut -->
		</NodeSet>
		<Surface name="MasterSurface01">
			<quad4 id="1">  1333,  1385,  1387,  1335</quad4>
			<quad4 id="2">  1335,  1387,  1389,  1337</quad4>
			<quad4 id="3">  1337,  1389,  1391,  1339</quad4>
			<quad4 id="4">  1339,  1391,  1393,  1341</quad4>
			<quad4 id="5">  1341,  1393,  1395,  1343</quad4>
			<quad4 id="6">  1343,  1395,  1397,  1345</quad4>
			<quad4 id="7">  1345,  1397,  1399,  1347</quad4>
			<quad4 id="8">  1347,  1399,  1401,  1349</quad4>
			<quad4 id="9">  1349,  1401,  1403,  1351</quad4>
			<quad4 id="10">  1351,  1403,  1405,  1353</quad4>
			<quad4 id="11">  1353,  1405,  1407,  1355</quad4>
			<quad4 id="12">  1355,  1407,  1409,  1357</quad4>
			<quad4 id="13">  1357,  1409,  1411,  1359</quad4>
			<quad4 id="14">  1359,  1411,  1413,  1361</quad4>
			<quad4 id="15">  1361,  1413,  1415,  1363</quad4>
			<quad4 id="16">  1363,  1415,  1417,  1365</quad4>
			<quad4 id="17">  1365,  1417,  1419,  1367</quad4>
			<quad4 id="18">  1367,  1419,  1421,  1369</quad4>
			<quad4 id="19">  1369,  1421,  1423,  1371</quad4>
			<quad4 id="20">  1371,  1423,  1425,  1373</quad4>
<!-- ... 605 like lines cut -->
		</Surface>
		<Surface name="SlaveSurface01">
			<quad4 id="1">   111,   232,   221,   100</quad4>
			<quad4 id="2">   100,   221,   210,    89</quad4>
			<quad4 id="3">    89,   210,   199,    78</quad4>
			<quad4 id="4">    78,   199,   188,    67</quad4>
			<quad4 id="5">    67,   188,   177,    56</quad4>
			<quad4 id="6">    56,   177,   166,    45</quad4>
			<quad4 id="7">    45,   166,   155,    34</quad4>
			<quad4 id="8">    34,   155,   144,    23</quad4>
			<quad4 id="9">    23,   144,   133,    12</quad4>
			<quad4 id="10">    12,   133,   122,     1</quad4>
			<quad4 id="11">   232,   353,   342,   221</quad4>
			<quad4 id="12">   221,   342,   331,   210</quad4>
			<quad4 id="13">   210,   331,   320,   199</quad4>
			<quad4 id="14">   199,   320,   309,   188</quad4>
			<quad4 id="15">   188,   309,   298,   177</quad4>
			<quad4 id="16">   177,   298,   287,   166</quad4>
			<quad4 id="17">   166,   287,   276,   155</quad4>
			<quad4 id="18">   155,   276,   265,   144</quad4>
			<quad4 id="19">   144,   265,   254,   133</quad4>
			<quad4 id="20">   133,   254,   243,   122</quad4>
<!-- ... 80 like lines cut -->
		</Surface>
		<ElementSet name="unnamed_set01">
			<elem id="313"/>
		</ElementSet>
		<SurfacePair name="SlidingContact01">
			<master surface="MasterSurface01"/>
			<slave surface="SlaveSurface01"/>
		</SurfacePair>
	</Geometry>
	<Boundary>
		<fix bc="z" node_set="FixedDisplacement01"/>
		<fix bc="y" node_set="FixedDisplacement02"/>
		<fix bc="x" node_set="FixedDisplacement03"/>
		<rigid_body mat="2">
			<fixed bc="x"/>
			<fixed bc="y"/>
			<fixed bc="Rx"/>
			<fixed bc="Ry"/>
			<fixed bc="Rz"/>
		</rigid_body>
	</Boundary>
	<Loads>
		<body_load type="const">
			<x lc="1">0</x>
			<y lc="2">0</y>
			<z lc="3">1</z>
		</body_load>
	</Loads>
	<Contact>
		<contact type="sliding-facet-on-facet" name="SlidingContact01" surface_pair="SlidingContact01">
			<laugon>0</laugon>
			<tolerance>0.1</tolerance>
			<penalty>100</penalty>
			<two_pass>1</two_pass>
			<auto_penalty>0</auto_penalty>
			<fric_coeff>0</fric_coeff>
			<fric_penalty>0</fric_penalty>
			<search_tol>0.01</search_tol>
			<minaug>0</minaug>
			<maxaug>10</maxaug>
			<gaptol>0</gaptol>
			<seg_up>0</seg_up>
		</contact>
	</Contact>
	<LoadData>
		<loadcurve id="1" type="smooth">
			<point>0,0</point>
			<point>1,1</point>
		</loadcurve>
		<loadcurve id="2" type="smooth">
			<point>0,0</point>
			<point>1,1</point>
		</loadcurve>
		<loadcurve id="3" type="linear">
			<point>0,1</point>
			<point>1,1</point>
		</loadcurve>
	</LoadData>
	<Output>
		<plotfile type="febio"/>
		<logfile>
			<element_data data="sx" elem_set="unnamed_set01"/>
		</logfile>
	</Output>
</febio_spec>
