<?xml version="1.0" encoding="ISO-8859-1"?>
<febio_spec version="2.5">
	<Module type="solid"/>
	<Control>
		<time_steps>10</time_steps>
		<step_size>0.1</step_size>
		<max_refs>15</max_refs>
		<max_ups>0</max_ups>
		<diverge_reform>1</diverge_reform>
		<reform_each_time_step>1</reform_each_time_step>
		<dtol>0.001</dtol>
		<etol>0.01</etol>
		<rtol>0</rtol>
		<lstol>0.9</lstol>
		<min_residual>1e-020</min_residual>
		<qnmethod>0</qnmethod>
		<time_stepper>
			<dtmin>0.01</dtmin>
			<dtmax>0.1</dtmax>
			<max_retries>5</max_retries>
			<opt_iter>10</opt_iter>
		</time_stepper>
		<analysis type="static"/>
	</Control>
	<Globals>
		<Constants>
			<T>0</T>
			<R>0</R>
			<Fc>0</Fc>
		</Constants>
	</Globals>
	<Material>
		<material id="1" name="Material 3" type="neo-Hookean">
			<density>1</density>
			<E>1</E>
			<v>0.499</v>
		</material>
		<material id="2" name="Material 4" type="neo-Hookean">
			<density>1</density>
			<E>1</E>
			<v>0.499</v>
		</material>
	</Material>
	<Geometry>
		<Nodes name="co35">
			<node id="1">-2.5000000e+000,-2.5000000e+000, 0.0000000e+000</node>
			<node id="2">-2.5000000e+000,-2.5000000e+000, 5.0000000e-001</node>
			<node id="3">-2.5000000e+000,-2.5000000e+000, 1.0000000e+000</node>
			<node id="4">-2.5000000e+000,-1.5000000e+000, 0.0000000e+000</node>
			<node id="5">-2.5000000e+000,-1.5000000e+000, 5.0000000e-001</node>
			<node id="6">-2.5000000e+000,-1.5000000e+000, 1.0000000e+000</node>
			<node id="7">-2.5000000e+000,-5.0000000e-001, 0.0000000e+000</node>
			<node id="8">-2.5000000e+000,-5.0000000e-001, 5.0000000e-001</node>
			<node id="9">-2.5000000e+000,-5.0000000e-001, 1.0000000e+000</node>
			<node id="10">-2.5000000e+000, 5.0000000e-001, 0.0000000e+000</node>
			<node id="11">-2.5000000e+000, 5.0000000e-001, 5.0000000e-001</node>
			<node id="12">-2.5000000e+000, 5.0000000e-001, 1.0000000e+000</node>
			<node id="13">-2.5000000e+000, 1.5000000e+000, 0.0000000e+000</node>
			<node id="14">-2.5000000e+000, 1.5000000e+000, 5.0000000e-001</node>
			<node id="15">-2.5000000e+000, 1.5000000e+000, 1.0000000e+000</node>
			<node id="16">-2.5000000e+000, 2.5000000e+000, 0.0000000e+000</node>
			<node id="17">-2.5000000e+000, 2.5000000e+000, 5.0000000e-001</node>
			<node id="18">-2.5000000e+000, 2.5000000e+000, 1.0000000e+000</node>
			<node id="19">-1.5000000e+000,-2.5000000e+000, 0.0000000e+000</node>
			<node id="20">-1.5000000e+000,-2.5000000e+000, 5.0000000e-001</node>
<!-- ... 196 like lines cut -->
		</Nodes>
		<Elements type="hex8" mat="1" name="Part28">
			<elem id="1">     1,    19,    22,     4,     2,    20,    23,     5</elem>
			<elem id="2">     2,    20,    23,     5,     3,    21,    24,     6</elem>
			<elem id="3">     4,    22,    25,     7,     5,    23,    26,     8</elem>
			<elem id="4">     5,    23,    26,     8,     6,    24,    27,     9</elem>
			<elem id="5">     7,    25,    28,    10,     8,    26,    29,    11</elem>
			<elem id="6">     8,    26,    29,    11,     9,    27,    30,    12</elem>
			<elem id="7">    10,    28,    31,    13,    11,    29,    32,    14</elem>
			<elem id="8">    11,    29,    32,    14,    12,    30,    33,    15</elem>
			<elem id="9">    13,    31,    34,    16,    14,    32,    35,    17</elem>
			<elem id="10">    14,    32,    35,    17,    15,    33,    36,    18</elem>
			<elem id="11">    19,    37,    40,    22,    20,    38,    41,    23</elem>
			<elem id="12">    20,    38,    41,    23,    21,    39,    42,    24</elem>
			<elem id="13">    22,    40,    43,    25,    23,    41,    44,    26</elem>
			<elem id="14">    23,    41,    44,    26,    24,    42,    45,    27</elem>
			<elem id="15">    25,    43,    46,    28,    26,    44,    47,    29</elem>
			<elem id="16">    26,    44,    47,    29,    27,    45,    48,    30</elem>
			<elem id="17">    28,    46,    49,    31,    29,    47,    50,    32</elem>
			<elem id="18">    29,    47,    50,    32,    30,    48,    51,    33</elem>
			<elem id="19">    31,    49,    52,    34,    32,    50,    53,    35</elem>
			<elem id="20">    32,    50,    53,    35,    33,    51,    54,    36</elem>
<!-- ... 30 like lines cut -->
		</Elements>
		<Elements type="hex8" mat="2" name="Part29">
			<elem id="51">   109,   127,   130,   112,   110,   128,   131,   113</elem>
			<elem id="52">   110,   128,   131,   113,   111,   129,   132,   114</elem>
			<elem id="53">   112,   130,   133,   115,   113,   131,   134,   116</elem>
			<elem id="54">   113,   131,   134,   116,   114,   132,   135,   117</elem>
			<elem id="55">   115,   133,   136,   118,   116,   134,   137,   119</elem>
			<elem id="56">   116,   134,   137,   119,   117,   135,   138,   120</elem>
			<elem id="57">   118,   136,   139,   121,   119,   137,   140,   122</elem>
			<elem id="58">   119,   137,   140,   122,   120,   138,   141,   123</elem>
			<elem id="59">   121,   139,   142,   124,   122,   140,   143,   125</elem>
			<elem id="60">   122,   140,   143,   125,   123,   141,   144,   126</elem>
			<elem id="61">   127,   145,   148,   130,   128,   146,   149,   131</elem>
			<elem id="62">   128,   146,   149,   131,   129,   147,   150,   132</elem>
			<elem id="63">   130,   148,   151,   133,   131,   149,   152,   134</elem>
			<elem id="64">   131,   149,   152,   134,   132,   150,   153,   135</elem>
			<elem id="65">   133,   151,   154,   136,   134,   152,   155,   137</elem>
			<elem id="66">   134,   152,   155,   137,   135,   153,   156,   138</elem>
			<elem id="67">   136,   154,   157,   139,   137,   155,   158,   140</elem>
			<elem id="68">   137,   155,   158,   140,   138,   156,   159,   141</elem>
			<elem id="69">   139,   157,   160,   142,   140,   158,   161,   143</elem>
			<elem id="70">   140,   158,   161,   143,   141,   159,   162,   144</elem>
<!-- ... 30 like lines cut -->
		</Elements>
		<NodeSet name="FixedDisplacement01">
			<node id="3"/>
			<node id="6"/>
			<node id="9"/>
			<node id="12"/>
			<node id="15"/>
			<node id="18"/>
			<node id="21"/>
			<node id="24"/>
			<node id="27"/>
			<node id="30"/>
			<node id="33"/>
			<node id="36"/>
			<node id="39"/>
			<node id="42"/>
			<node id="45"/>
			<node id="48"/>
			<node id="51"/>
			<node id="54"/>
			<node id="57"/>
			<node id="60"/>
<!-- ... 52 like lines cut -->
		</NodeSet>
		<NodeSet name="FixedDisplacement02">
			<node id="3"/>
			<node id="6"/>
			<node id="9"/>
			<node id="12"/>
			<node id="15"/>
			<node id="18"/>
			<node id="21"/>
			<node id="24"/>
			<node id="27"/>
			<node id="30"/>
			<node id="33"/>
			<node id="36"/>
			<node id="39"/>
			<node id="42"/>
			<node id="45"/>
			<node id="48"/>
			<node id="51"/>
			<node id="54"/>
			<node id="57"/>
			<node id="60"/>
<!-- ... 52 like lines cut -->
		</NodeSet>
		<NodeSet name="FixedDisplacement03">
			<node id="109"/>
			<node id="112"/>
			<node id="115"/>
			<node id="118"/>
			<node id="121"/>
			<node id="124"/>
			<node id="127"/>
			<node id="130"/>
			<node id="133"/>
			<node id="136"/>
			<node id="139"/>
			<node id="142"/>
			<node id="145"/>
			<node id="148"/>
			<node id="151"/>
			<node id="154"/>
			<node id="157"/>
			<node id="160"/>
			<node id="163"/>
			<node id="166"/>
<!-- ... 16 like lines cut -->
		</NodeSet>
		<NodeSet name="PrescribedBC59">
			<node id="3"/>
			<node id="6"/>
			<node id="9"/>
			<node id="12"/>
			<node id="15"/>
			<node id="18"/>
			<node id="21"/>
			<node id="24"/>
			<node id="27"/>
			<node id="30"/>
			<node id="33"/>
			<node id="36"/>
			<node id="39"/>
			<node id="42"/>
			<node id="45"/>
			<node id="48"/>
			<node id="51"/>
			<node id="54"/>
			<node id="57"/>
			<node id="60"/>
<!-- ... 16 like lines cut -->
		</NodeSet>
		<Surface name="MasterSurface01">
			<quad4 id="1">   111,   129,   132,   114</quad4>
			<quad4 id="2">   114,   132,   135,   117</quad4>
			<quad4 id="3">   117,   135,   138,   120</quad4>
			<quad4 id="4">   120,   138,   141,   123</quad4>
			<quad4 id="5">   123,   141,   144,   126</quad4>
			<quad4 id="6">   129,   147,   150,   132</quad4>
			<quad4 id="7">   132,   150,   153,   135</quad4>
			<quad4 id="8">   135,   153,   156,   138</quad4>
			<quad4 id="9">   138,   156,   159,   141</quad4>
			<quad4 id="10">   141,   159,   162,   144</quad4>
			<quad4 id="11">   147,   165,   168,   150</quad4>
			<quad4 id="12">   150,   168,   171,   153</quad4>
			<quad4 id="13">   153,   171,   174,   156</quad4>
			<quad4 id="14">   156,   174,   177,   159</quad4>
			<quad4 id="15">   159,   177,   180,   162</quad4>
			<quad4 id="16">   165,   183,   186,   168</quad4>
			<quad4 id="17">   168,   186,   189,   171</quad4>
			<quad4 id="18">   171,   189,   192,   174</quad4>
			<quad4 id="19">   174,   192,   195,   177</quad4>
			<quad4 id="20">   177,   195,   198,   180</quad4>
<!-- ... 5 like lines cut -->
		</Surface>
		<Surface name="SlaveSurface01">
			<quad4 id="1">     4,    22,    19,     1</quad4>
			<quad4 id="2">     7,    25,    22,     4</quad4>
			<quad4 id="3">    10,    28,    25,     7</quad4>
			<quad4 id="4">    13,    31,    28,    10</quad4>
			<quad4 id="5">    16,    34,    31,    13</quad4>
			<quad4 id="6">    22,    40,    37,    19</quad4>
			<quad4 id="7">    25,    43,    40,    22</quad4>
			<quad4 id="8">    28,    46,    43,    25</quad4>
			<quad4 id="9">    31,    49,    46,    28</quad4>
			<quad4 id="10">    34,    52,    49,    31</quad4>
			<quad4 id="11">    40,    58,    55,    37</quad4>
			<quad4 id="12">    43,    61,    58,    40</quad4>
			<quad4 id="13">    46,    64,    61,    43</quad4>
			<quad4 id="14">    49,    67,    64,    46</quad4>
			<quad4 id="15">    52,    70,    67,    49</quad4>
			<quad4 id="16">    58,    76,    73,    55</quad4>
			<quad4 id="17">    61,    79,    76,    58</quad4>
			<quad4 id="18">    64,    82,    79,    61</quad4>
			<quad4 id="19">    67,    85,    82,    64</quad4>
			<quad4 id="20">    70,    88,    85,    67</quad4>
<!-- ... 5 like lines cut -->
		</Surface>
		<ElementSet name="unnamed_set01">
			<elem id="100"/>
		</ElementSet>
		<SurfacePair name="SlidingContact01">
			<master surface="MasterSurface01"/>
			<slave surface="SlaveSurface01"/>
		</SurfacePair>
	</Geometry>
	<Boundary>
		<fix bc="y" node_set="FixedDisplacement01"/>
		<fix bc="x" node_set="FixedDisplacement02"/>
		<fix bc="z" node_set="FixedDisplacement03"/>
		<prescribe bc="z" node_set="PrescribedBC59">
			<scale lc="1">1</scale>
			<relative>0</relative>
		</prescribe>
	</Boundary>
	<Contact>
		<contact type="sliding-facet-on-facet" name="SlidingContact01" surface_pair="SlidingContact01">
			<laugon>0</laugon>
			<tolerance>0.05</tolerance>
			<penalty>500</penalty>
			<two_pass>1</two_pass>
			<auto_penalty>0</auto_penalty>
			<fric_coeff>0</fric_coeff>
			<fric_penalty>0</fric_penalty>
			<search_tol>0.01</search_tol>
			<minaug>0</minaug>
			<maxaug>10</maxaug>
			<gaptol>0</gaptol>
			<seg_up>0</seg_up>
		</contact>
	</Contact>
	<LoadData>
		<loadcurve id="1" type="linear">
			<point>0,0</point>
			<point>1,-0.5</point>
		</loadcurve>
	</LoadData>
	<Output>
		<plotfile type="febio"/>
		<logfile>
			<element_data data="sx" elem_set="unnamed_set01"/>
		</logfile>
	</Output>
</febio_spec>
