<?xml version="1.0" encoding="ISO-8859-1"?>
<febio_spec version="2.5">
	<Module type="multiphasic"/>
	<Globals>
		<Constants>
			<T>293</T>
			<R>8.314e-006</R>
			<Fc>9.65e-005</Fc>
		</Constants>
		<Solutes>
			<solute id="1" name="Na+">
				<charge_number>1</charge_number>
				<molar_mass>1</molar_mass>
				<density>1</density>
			</solute>
			<solute id="2" name="Cl-">
				<charge_number>-1</charge_number>
				<molar_mass>1</molar_mass>
				<density>1</density>
			</solute>
		</Solutes>
	</Globals>
	<Material>
		<material id="1" name="TopLayer" type="multiphasic">
			<phi0>0.2</phi0>
			<fixed_charge_density lc="2">-150</fixed_charge_density>
			<solid type="neo-Hookean">
				<density>1</density>
				<E>0.5</E>
				<v>0</v>
			</solid>
			<permeability type="perm-const-iso">
				<perm>0.001</perm>
			</permeability>
			<osmotic_coefficient type="osm-coef-const">
				<osmcoef>1</osmcoef>
			</osmotic_coefficient>
			<solute sol="1">
				<diffusivity type="diff-const-iso">
					<free_diff>0.001</free_diff>
					<diff>0.0005</diff>
				</diffusivity>
				<solubility type="solub-const">
					<solub>1</solub>
				</solubility>
			</solute>
			<solute sol="2">
				<diffusivity type="diff-const-iso">
					<free_diff>0.0016</free_diff>
					<diff>0.0008</diff>
				</diffusivity>
				<solubility type="solub-const">
					<solub>1</solub>
				</solubility>
			</solute>
		</material>
		<material id="2" name="BottomLayer" type="multiphasic">
			<phi0>0.2</phi0>
			<fixed_charge_density lc="3">-150</fixed_charge_density>
			<solid type="neo-Hookean">
				<density>1</density>
				<E>0.5</E>
				<v>0</v>
			</solid>
			<permeability type="perm-const-iso">
				<perm>0.001</perm>
			</permeability>
			<osmotic_coefficient type="osm-coef-const">
				<osmcoef>1</osmcoef>
			</osmotic_coefficient>
			<solute sol="1">
				<diffusivity type="diff-const-iso">
					<free_diff>0.001</free_diff>
					<diff>0.0005</diff>
				</diffusivity>
				<solubility type="solub-const">
					<solub>1</solub>
				</solubility>
			</solute>
			<solute sol="2">
				<diffusivity type="diff-const-iso">
					<free_diff>0.0016</free_diff>
					<diff>0.0008</diff>
				</diffusivity>
				<solubility type="solub-const">
					<solub>1</solub>
				</solubility>
			</solute>
		</material>
	</Material>
	<Geometry>
		<Nodes name="co49">
			<node id="1"> 0.0000000e+000,-1.0000000e+000, 0.0000000e+000</node>
			<node id="2"> 0.0000000e+000,-1.0000000e+000, 2.5000000e-001</node>
			<node id="3"> 0.0000000e+000,-9.7904240e-001, 0.0000000e+000</node>
			<node id="4"> 0.0000000e+000,-9.7904240e-001, 2.5000000e-001</node>
			<node id="5"> 0.0000000e+000,-9.5179751e-001, 0.0000000e+000</node>
			<node id="6"> 0.0000000e+000,-9.5179751e-001, 2.5000000e-001</node>
			<node id="7"> 0.0000000e+000,-9.1637917e-001, 0.0000000e+000</node>
			<node id="8"> 0.0000000e+000,-9.1637917e-001, 2.5000000e-001</node>
			<node id="9"> 0.0000000e+000,-8.7033531e-001, 0.0000000e+000</node>
			<node id="10"> 0.0000000e+000,-8.7033531e-001, 2.5000000e-001</node>
			<node id="11"> 0.0000000e+000,-8.1047830e-001, 0.0000000e+000</node>
			<node id="12"> 0.0000000e+000,-8.1047830e-001, 2.5000000e-001</node>
			<node id="13"> 0.0000000e+000,-7.3266419e-001, 0.0000000e+000</node>
			<node id="14"> 0.0000000e+000,-7.3266419e-001, 2.5000000e-001</node>
			<node id="15"> 0.0000000e+000,-6.3150585e-001, 0.0000000e+000</node>
			<node id="16"> 0.0000000e+000,-6.3150585e-001, 2.5000000e-001</node>
			<node id="17"> 0.0000000e+000,-5.0000000e-001, 0.0000000e+000</node>
			<node id="18"> 0.0000000e+000,-5.0000000e-001, 2.5000000e-001</node>
			<node id="19"> 0.0000000e+000,-3.6849415e-001, 0.0000000e+000</node>
			<node id="20"> 0.0000000e+000,-3.6849415e-001, 2.5000000e-001</node>
<!-- ... 2700 like lines cut -->
		</Nodes>
		<Elements type="hex8" mat="1" name="Part1">
			<elem id="1">  1395,  1396,  1413,  1412,  2058,  2059,  2076,  2075</elem>
			<elem id="2">  1396,  1397,  1414,  1413,  2059,  2060,  2077,  2076</elem>
			<elem id="3">  1397,  1398,  1415,  1414,  2060,  2061,  2078,  2077</elem>
			<elem id="4">  1398,  1399,  1416,  1415,  2061,  2062,  2079,  2078</elem>
			<elem id="5">  1399,  1400,  1417,  1416,  2062,  2063,  2080,  2079</elem>
			<elem id="6">  1400,  1401,  1418,  1417,  2063,  2064,  2081,  2080</elem>
			<elem id="7">  1401,  1402,  1419,  1418,  2064,  2065,  2082,  2081</elem>
			<elem id="8">  1402,  1403,  1420,  1419,  2065,  2066,  2083,  2082</elem>
			<elem id="9">  1403,  1404,  1421,  1420,  2066,  2067,  2084,  2083</elem>
			<elem id="10">  1404,  1405,  1422,  1421,  2067,  2068,  2085,  2084</elem>
			<elem id="11">  1405,  1406,  1423,  1422,  2068,  2069,  2086,  2085</elem>
			<elem id="12">  1406,  1407,  1424,  1423,  2069,  2070,  2087,  2086</elem>
			<elem id="13">  1407,  1408,  1425,  1424,  2070,  2071,  2088,  2087</elem>
			<elem id="14">  1408,  1409,  1426,  1425,  2071,  2072,  2089,  2088</elem>
			<elem id="15">  1409,  1410,  1427,  1426,  2072,  2073,  2090,  2089</elem>
			<elem id="16">  1410,  1411,  1428,  1427,  2073,  2074,  2091,  2090</elem>
			<elem id="17">  1412,  1413,  1430,  1429,  2075,  2076,  2093,  2092</elem>
			<elem id="18">  1413,  1414,  1431,  1430,  2076,  2077,  2094,  2093</elem>
			<elem id="19">  1414,  1415,  1432,  1431,  2077,  2078,  2095,  2094</elem>
			<elem id="20">  1415,  1416,  1433,  1432,  2078,  2079,  2096,  2095</elem>
<!-- ... 588 like lines cut -->
		</Elements>
		<Elements type="hex8" mat="2" name="Part2">
			<elem id="609">     1,    35,    37,     3,     2,    36,    38,     4</elem>
			<elem id="610">     3,    37,    39,     5,     4,    38,    40,     6</elem>
			<elem id="611">     5,    39,    41,     7,     6,    40,    42,     8</elem>
			<elem id="612">     7,    41,    43,     9,     8,    42,    44,    10</elem>
			<elem id="613">     9,    43,    45,    11,    10,    44,    46,    12</elem>
			<elem id="614">    11,    45,    47,    13,    12,    46,    48,    14</elem>
			<elem id="615">    13,    47,    49,    15,    14,    48,    50,    16</elem>
			<elem id="616">    15,    49,    51,    17,    16,    50,    52,    18</elem>
			<elem id="617">    17,    51,    53,    19,    18,    52,    54,    20</elem>
			<elem id="618">    19,    53,    55,    21,    20,    54,    56,    22</elem>
			<elem id="619">    21,    55,    57,    23,    22,    56,    58,    24</elem>
			<elem id="620">    23,    57,    59,    25,    24,    58,    60,    26</elem>
			<elem id="621">    25,    59,    61,    27,    26,    60,    62,    28</elem>
			<elem id="622">    27,    61,    63,    29,    28,    62,    64,    30</elem>
			<elem id="623">    29,    63,    65,    31,    30,    64,    66,    32</elem>
			<elem id="624">    31,    65,    67,    33,    32,    66,    68,    34</elem>
			<elem id="625">    35,    69,    71,    37,    36,    70,    72,    38</elem>
			<elem id="626">    37,    71,    73,    39,    38,    72,    74,    40</elem>
			<elem id="627">    39,    73,    75,    41,    40,    74,    76,    42</elem>
			<elem id="628">    41,    75,    77,    43,    42,    76,    78,    44</elem>
<!-- ... 620 like lines cut -->
		</Elements>
		<NodeSet name="unnamed_set01">
			<node id="34"/>
		</NodeSet>
		<NodeSet name="FixedNodeset01">
			<node id="1"/>
			<node id="2"/>
			<node id="3"/>
			<node id="4"/>
			<node id="5"/>
			<node id="6"/>
			<node id="7"/>
			<node id="8"/>
			<node id="9"/>
			<node id="10"/>
			<node id="11"/>
			<node id="12"/>
			<node id="13"/>
			<node id="14"/>
			<node id="15"/>
			<node id="16"/>
			<node id="17"/>
			<node id="18"/>
			<node id="19"/>
			<node id="20"/>
<!-- ... 48 like lines cut -->
		</NodeSet>
		<NodeSet name="FixedNodeset02">
			<node id="1"/>
			<node id="2"/>
			<node id="3"/>
			<node id="4"/>
			<node id="5"/>
			<node id="6"/>
			<node id="7"/>
			<node id="8"/>
			<node id="9"/>
			<node id="10"/>
			<node id="11"/>
			<node id="12"/>
			<node id="13"/>
			<node id="14"/>
			<node id="15"/>
			<node id="16"/>
			<node id="17"/>
			<node id="18"/>
			<node id="19"/>
			<node id="20"/>
<!-- ... 2700 like lines cut -->
		</NodeSet>
		<NodeSet name="FixedNodeset03">
			<node id="1"/>
			<node id="2"/>
			<node id="35"/>
			<node id="36"/>
			<node id="69"/>
			<node id="70"/>
			<node id="103"/>
			<node id="104"/>
			<node id="137"/>
			<node id="138"/>
			<node id="171"/>
			<node id="172"/>
			<node id="205"/>
			<node id="206"/>
			<node id="239"/>
			<node id="240"/>
			<node id="273"/>
			<node id="274"/>
			<node id="307"/>
			<node id="308"/>
<!-- ... 62 like lines cut -->
		</NodeSet>
		<NodeSet name="FixedNodeset04">
			<node id="1"/>
			<node id="2"/>
			<node id="35"/>
			<node id="36"/>
			<node id="69"/>
			<node id="70"/>
			<node id="103"/>
			<node id="104"/>
			<node id="137"/>
			<node id="138"/>
			<node id="171"/>
			<node id="172"/>
			<node id="205"/>
			<node id="206"/>
			<node id="239"/>
			<node id="240"/>
			<node id="273"/>
			<node id="274"/>
			<node id="307"/>
			<node id="308"/>
<!-- ... 62 like lines cut -->
		</NodeSet>
		<NodeSet name="FixedNodeset05">
			<node id="1395"/>
			<node id="1412"/>
			<node id="1429"/>
			<node id="1446"/>
			<node id="1463"/>
			<node id="1480"/>
			<node id="1497"/>
			<node id="1514"/>
			<node id="1531"/>
			<node id="1548"/>
			<node id="1565"/>
			<node id="1582"/>
			<node id="1599"/>
			<node id="1616"/>
			<node id="1633"/>
			<node id="1650"/>
			<node id="1667"/>
			<node id="1684"/>
			<node id="1701"/>
			<node id="1718"/>
<!-- ... 58 like lines cut -->
		</NodeSet>
		<NodeSet name="Nodeset04">
			<node id="1395"/>
			<node id="1412"/>
			<node id="1429"/>
			<node id="1446"/>
			<node id="1463"/>
			<node id="1480"/>
			<node id="1497"/>
			<node id="1514"/>
			<node id="1531"/>
			<node id="1548"/>
			<node id="1565"/>
			<node id="1582"/>
			<node id="1599"/>
			<node id="1616"/>
			<node id="1633"/>
			<node id="1650"/>
			<node id="1667"/>
			<node id="1684"/>
			<node id="1701"/>
			<node id="1718"/>
<!-- ... 58 like lines cut -->
		</NodeSet>
		<NodeSet name="Nodeset05">
			<node id="1361"/>
			<node id="1362"/>
			<node id="1363"/>
			<node id="1364"/>
			<node id="1365"/>
			<node id="1366"/>
			<node id="1367"/>
			<node id="1368"/>
			<node id="1369"/>
			<node id="1370"/>
			<node id="1371"/>
			<node id="1372"/>
			<node id="1373"/>
			<node id="1374"/>
			<node id="1375"/>
			<node id="1376"/>
			<node id="1377"/>
			<node id="1378"/>
			<node id="1379"/>
			<node id="1380"/>
<!-- ... 48 like lines cut -->
		</NodeSet>
		<NodeSet name="Nodeset06">
			<node id="1361"/>
			<node id="1362"/>
			<node id="1363"/>
			<node id="1364"/>
			<node id="1365"/>
			<node id="1366"/>
			<node id="1367"/>
			<node id="1368"/>
			<node id="1369"/>
			<node id="1370"/>
			<node id="1371"/>
			<node id="1372"/>
			<node id="1373"/>
			<node id="1374"/>
			<node id="1375"/>
			<node id="1376"/>
			<node id="1377"/>
			<node id="1378"/>
			<node id="1379"/>
			<node id="1380"/>
<!-- ... 48 like lines cut -->
		</NodeSet>
		<NodeSet name="Nodeset07">
			<node id="1361"/>
			<node id="1362"/>
			<node id="1363"/>
			<node id="1364"/>
			<node id="1365"/>
			<node id="1366"/>
			<node id="1367"/>
			<node id="1368"/>
			<node id="1369"/>
			<node id="1370"/>
			<node id="1371"/>
			<node id="1372"/>
			<node id="1373"/>
			<node id="1374"/>
			<node id="1375"/>
			<node id="1376"/>
			<node id="1377"/>
			<node id="1378"/>
			<node id="1379"/>
			<node id="1380"/>
<!-- ... 48 like lines cut -->
		</NodeSet>
		<NodeSet name="InitialConcentration01">
			<node id="1"/>
			<node id="2"/>
			<node id="3"/>
			<node id="4"/>
			<node id="5"/>
			<node id="6"/>
			<node id="7"/>
			<node id="8"/>
			<node id="9"/>
			<node id="10"/>
			<node id="11"/>
			<node id="12"/>
			<node id="13"/>
			<node id="14"/>
			<node id="15"/>
			<node id="16"/>
			<node id="17"/>
			<node id="18"/>
			<node id="19"/>
			<node id="20"/>
<!-- ... 2700 like lines cut -->
		</NodeSet>
		<NodeSet name="InitialConcentration01">
			<node id="1"/>
			<node id="2"/>
			<node id="3"/>
			<node id="4"/>
			<node id="5"/>
			<node id="6"/>
			<node id="7"/>
			<node id="8"/>
			<node id="9"/>
			<node id="10"/>
			<node id="11"/>
			<node id="12"/>
			<node id="13"/>
			<node id="14"/>
			<node id="15"/>
			<node id="16"/>
			<node id="17"/>
			<node id="18"/>
			<node id="19"/>
			<node id="20"/>
<!-- ... 2700 like lines cut -->
		</NodeSet>
		<NodeSet name="InitialFluidPressure01">
			<node id="1"/>
			<node id="2"/>
			<node id="3"/>
			<node id="4"/>
			<node id="5"/>
			<node id="6"/>
			<node id="7"/>
			<node id="8"/>
			<node id="9"/>
			<node id="10"/>
			<node id="11"/>
			<node id="12"/>
			<node id="13"/>
			<node id="14"/>
			<node id="15"/>
			<node id="16"/>
			<node id="17"/>
			<node id="18"/>
			<node id="19"/>
			<node id="20"/>
<!-- ... 2700 like lines cut -->
		</NodeSet>
		<NodeSet name="unnamed_set01">
			<node id="34"/>
		</NodeSet>
		<Surface name="MasterSurface01">
			<quad4 id="1">  1411,  1428,  2091,  2074</quad4>
			<quad4 id="2">  1428,  1445,  2108,  2091</quad4>
			<quad4 id="3">  1445,  1462,  2125,  2108</quad4>
			<quad4 id="4">  1462,  1479,  2142,  2125</quad4>
			<quad4 id="5">  1479,  1496,  2159,  2142</quad4>
			<quad4 id="6">  1496,  1513,  2176,  2159</quad4>
			<quad4 id="7">  1513,  1530,  2193,  2176</quad4>
			<quad4 id="8">  1530,  1547,  2210,  2193</quad4>
			<quad4 id="9">  1547,  1564,  2227,  2210</quad4>
			<quad4 id="10">  1564,  1581,  2244,  2227</quad4>
			<quad4 id="11">  1581,  1598,  2261,  2244</quad4>
			<quad4 id="12">  1598,  1615,  2278,  2261</quad4>
			<quad4 id="13">  1615,  1632,  2295,  2278</quad4>
			<quad4 id="14">  1632,  1649,  2312,  2295</quad4>
			<quad4 id="15">  1649,  1666,  2329,  2312</quad4>
			<quad4 id="16">  1666,  1683,  2346,  2329</quad4>
			<quad4 id="17">  1683,  1700,  2363,  2346</quad4>
			<quad4 id="18">  1700,  1717,  2380,  2363</quad4>
			<quad4 id="19">  1717,  1734,  2397,  2380</quad4>
			<quad4 id="20">  1734,  1751,  2414,  2397</quad4>
<!-- ... 18 like lines cut -->
		</Surface>
		<Surface name="SlaveSurface01">
			<quad4 id="1">  1393,  1359,  1360,  1394</quad4>
			<quad4 id="2">  1359,  1325,  1326,  1360</quad4>
			<quad4 id="3">  1325,  1291,  1292,  1326</quad4>
			<quad4 id="4">  1291,  1257,  1258,  1292</quad4>
			<quad4 id="5">  1257,  1223,  1224,  1258</quad4>
			<quad4 id="6">  1223,  1189,  1190,  1224</quad4>
			<quad4 id="7">  1189,  1155,  1156,  1190</quad4>
			<quad4 id="8">  1155,  1121,  1122,  1156</quad4>
			<quad4 id="9">  1121,  1087,  1088,  1122</quad4>
			<quad4 id="10">  1087,  1053,  1054,  1088</quad4>
			<quad4 id="11">  1053,  1019,  1020,  1054</quad4>
			<quad4 id="12">  1019,   985,   986,  1020</quad4>
			<quad4 id="13">   985,   951,   952,   986</quad4>
			<quad4 id="14">   951,   917,   918,   952</quad4>
			<quad4 id="15">   917,   883,   884,   918</quad4>
			<quad4 id="16">   883,   849,   850,   884</quad4>
			<quad4 id="17">   849,   815,   816,   850</quad4>
			<quad4 id="18">   815,   781,   782,   816</quad4>
			<quad4 id="19">   781,   747,   748,   782</quad4>
			<quad4 id="20">   747,   713,   714,   748</quad4>
<!-- ... 20 like lines cut -->
		</Surface>
		<SurfacePair name="MultiphasicContact01">
			<master surface="MasterSurface01"/>
			<slave surface="SlaveSurface01"/>
		</SurfacePair>
	</Geometry>
	<Boundary>
		<fix bc="x" node_set="FixedNodeset01"/>
		<fix bc="z" node_set="FixedNodeset02"/>
		<fix bc="y" node_set="FixedNodeset03"/>
		<fix bc="x" node_set="FixedNodeset04"/>
		<fix bc="x" node_set="FixedNodeset05"/>
		<prescribe bc="y" node_set="Nodeset04">
			<scale lc="4">1</scale>
			<relative>0</relative>
		</prescribe>
		<prescribe bc="c1" node_set="Nodeset05">
			<scale lc="5">1</scale>
			<relative>0</relative>
		</prescribe>
		<prescribe bc="c2" node_set="Nodeset06">
			<scale lc="6">1</scale>
			<relative>0</relative>
		</prescribe>
		<prescribe bc="p" node_set="Nodeset07">
			<scale lc="7">1</scale>
			<relative>0</relative>
		</prescribe>
	</Boundary>
	<Contact>
		<contact type="sliding-multiphasic" name="MultiphasicContact01" surface_pair="MultiphasicContact01">
			<laugon>0</laugon>
			<tolerance>0.2</tolerance>
			<gaptol>0</gaptol>
			<ptol>0</ptol>
			<ctol>0</ctol>
			<penalty>10</penalty>
			<two_pass>1</two_pass>
			<auto_penalty>1</auto_penalty>
			<pressure_penalty>1</pressure_penalty>
			<symmetric_stiffness>0</symmetric_stiffness>
			<concentration_penalty>1</concentration_penalty>
			<ambient_pressure>-0.730801</ambient_pressure>
			<ambient_concentration sol="1">150</ambient_concentration>
			<ambient_concentration sol="2">150</ambient_concentration>
			<search_radius>1</search_radius>
			<seg_up>0</seg_up>
			<minaug>0</minaug>
			<maxaug>10</maxaug>
		</contact>
	</Contact>
	<Initial>
		<init bc="c1" node_set="InitialConcentration01">
			<value>150</value>
		</init>
		<init bc="c2" node_set="InitialConcentration01">
			<value>150</value>
		</init>
		<init bc="p" node_set="InitialFluidPressure01">
			<value>-0.730801</value>
		</init>
	</Initial>
	<LoadData>
		<loadcurve id="1" type="step">
			<point>0,0</point>
			<point>1,0.1</point>
		</loadcurve>
		<loadcurve id="2" type="smooth">
			<point>0,0</point>
			<point>1,1</point>
		</loadcurve>
		<loadcurve id="3" type="smooth">
			<point>0,0</point>
			<point>1,1</point>
		</loadcurve>
		<loadcurve id="4" type="linear">
			<point>0,0</point>
			<point>1,0</point>
			<point>2,-0.2</point>
		</loadcurve>
		<loadcurve id="5" type="step">
			<point>0,0</point>
			<point>1,150</point>
		</loadcurve>
		<loadcurve id="6" type="step">
			<point>0,0</point>
			<point>1,150</point>
		</loadcurve>
		<loadcurve id="7" type="step">
			<point>0,0</point>
			<point>1,-0.7308006</point>
		</loadcurve>
	</LoadData>
	<Output>
		<plotfile type="febio">
			<var type="contact area"/>
			<var type="contact force"/>
			<var type="contact gap"/>
			<var type="contact pressure"/>
			<var type="contact traction"/>
			<var type="current density"/>
			<var type="displacement"/>
			<var type="relative volume"/>
			<var type="stress"/>
			<var type="effective fluid pressure"/>
			<var type="fluid pressure"/>
			<var type="fluid flux"/>
			<var type="fluid force"/>
			<var type="osmolarity"/>
			<var type="pressure gap"/>
			<var type="effective solute concentration"/>
			<var type="electric potential"/>
			<var type="fixed charge density"/>
			<var type="solute concentration"/>
			<var type="solute flux"/>
		</plotfile>
		<logfile>
			<node_data data="p" node_set="unnamed_set01"/>
		</logfile>
	</Output>
	<Step name="Step01 Stead-state swelling">
		<Control>
			<time_steps>10</time_steps>
			<step_size>0.1</step_size>
			<max_refs>15</max_refs>
			<max_ups>0</max_ups>
			<diverge_reform>1</diverge_reform>
			<reform_each_time_step>1</reform_each_time_step>
			<dtol>0.001</dtol>
			<etol>0.01</etol>
			<rtol>0</rtol>
			<ptol>0.01</ptol>
			<ctol>0.01</ctol>
			<lstol>0.9</lstol>
			<min_residual>1e-011</min_residual>
			<qnmethod>0</qnmethod>
			<time_stepper>
				<dtmin>0.01</dtmin>
				<dtmax>0.1</dtmax>
				<max_retries>5</max_retries>
				<opt_iter>10</opt_iter>
			</time_stepper>
			<analysis type="steady-state"/>
			<symmetric_biphasic>0</symmetric_biphasic>
		</Control>
	</Step>
	<Step name="Step02 Loading">
		<Control>
			<time_steps>20</time_steps>
			<step_size>0.1</step_size>
			<max_refs>15</max_refs>
			<max_ups>0</max_ups>
			<diverge_reform>1</diverge_reform>
			<reform_each_time_step>1</reform_each_time_step>
			<dtol>0.001</dtol>
			<etol>0.01</etol>
			<rtol>0</rtol>
			<ptol>0.01</ptol>
			<ctol>0.01</ctol>
			<lstol>0.9</lstol>
			<min_residual>1e-020</min_residual>
			<qnmethod>0</qnmethod>
			<time_stepper>
				<dtmin>0.01</dtmin>
				<dtmax lc="1"></dtmax>
				<max_retries>5</max_retries>
				<opt_iter>10</opt_iter>
			</time_stepper>
			<symmetric_biphasic>0</symmetric_biphasic>
		</Control>
	</Step>
</febio_spec>
