<?xml version="1.0" encoding="ISO-8859-1"?>
<febio_spec version="2.5">
	<Module type="multiphasic"/>
	<Control>
		<time_steps>200</time_steps>
		<step_size>1</step_size>
		<max_refs>15</max_refs>
		<max_ups>0</max_ups>
		<diverge_reform>1</diverge_reform>
		<reform_each_time_step>1</reform_each_time_step>
		<dtol>0.01</dtol>
		<etol>0.01</etol>
		<rtol>0</rtol>
		<ptol>0.01</ptol>
		<ctol>0.01</ctol>
		<lstol>0.9</lstol>
		<min_residual>1e-020</min_residual>
		<qnmethod>1</qnmethod>
		<time_stepper>
			<dtmin>0.01</dtmin>
			<dtmax>1</dtmax>
			<max_retries>5</max_retries>
			<opt_iter>10</opt_iter>
		</time_stepper>
		<analysis type="steady-state"/>
		<symmetric_biphasic>0</symmetric_biphasic>
	</Control>
	<Globals>
		<Constants>
			<T>293</T>
			<R>8.314e-006</R>
			<Fc>9.65e-005</Fc>
		</Constants>
		<Solutes>
			<solute id="1" name="solute">
				<charge_number>0</charge_number>
				<molar_mass>1</molar_mass>
				<density>1</density>
			</solute>
		</Solutes>
		<SolidBoundMolecules>
			<solid_bound id="1" name="solid">
				<charge_number>0</charge_number>
				<molar_mass>1</molar_mass>
				<density>1000</density>
			</solid_bound>
		</SolidBoundMolecules>
	</Globals>
	<Material>
		<material id="1" name="solid matrix" type="multiphasic">
			<phi0>0</phi0>
			<fixed_charge_density>0</fixed_charge_density>
			<solid type="Carter-Hayes">
				<density>1</density>
				<E0>10000</E0>
				<rho0>1</rho0>
				<gamma>2</gamma>
				<v>0</v>
				<sbm>1</sbm>
			</solid>
			<permeability type="perm-const-iso">
				<perm>1</perm>
			</permeability>
			<osmotic_coefficient type="osm-coef-const">
				<osmcoef>1</osmcoef>
			</osmotic_coefficient>
			<solid_bound sbm="1">
				<rho0>1</rho0>
				<rhomin>0</rhomin>
				<rhomax>0</rhomax>
			</solid_bound>
			<reaction name="solid remodeling" type="mass-action-forward">
				<Vbar>0</Vbar>
				<forward_rate type="Huiskes reaction rate">
					<B>1</B>
					<psi0>0.01</psi0>
				</forward_rate>
				<vP sbm="1">1</vP>
			</reaction>
		</material>
	</Material>
	<Geometry>
		<Nodes name="cr02">
			<node id="1">-5.0000000e-001,-5.0000000e-001, 0.0000000e+000</node>
			<node id="2">-5.0000000e-001,-5.0000000e-001, 1.0000000e-001</node>
			<node id="3">-5.0000000e-001,-5.0000000e-001, 2.0000000e-001</node>
			<node id="4">-5.0000000e-001,-5.0000000e-001, 3.0000000e-001</node>
			<node id="5">-5.0000000e-001,-5.0000000e-001, 4.0000000e-001</node>
			<node id="6">-5.0000000e-001,-5.0000000e-001, 5.0000000e-001</node>
			<node id="7">-5.0000000e-001,-5.0000000e-001, 6.0000000e-001</node>
			<node id="8">-5.0000000e-001,-5.0000000e-001, 7.0000000e-001</node>
			<node id="9">-5.0000000e-001,-5.0000000e-001, 8.0000000e-001</node>
			<node id="10">-5.0000000e-001,-5.0000000e-001, 9.0000000e-001</node>
			<node id="11">-5.0000000e-001,-5.0000000e-001, 1.0000000e+000</node>
			<node id="12">-5.0000000e-001,-5.0000000e-001, 1.1000000e+000</node>
			<node id="13">-5.0000000e-001,-5.0000000e-001, 1.2000000e+000</node>
			<node id="14">-5.0000000e-001,-5.0000000e-001, 1.3000000e+000</node>
			<node id="15">-5.0000000e-001,-5.0000000e-001, 1.4000000e+000</node>
			<node id="16">-5.0000000e-001,-5.0000000e-001, 1.5000000e+000</node>
			<node id="17">-5.0000000e-001,-5.0000000e-001, 1.6000000e+000</node>
			<node id="18">-5.0000000e-001,-5.0000000e-001, 1.7000000e+000</node>
			<node id="19">-5.0000000e-001,-5.0000000e-001, 1.8000000e+000</node>
			<node id="20">-5.0000000e-001,-5.0000000e-001, 1.9000000e+000</node>
<!-- ... 384 like lines cut -->
		</Nodes>
		<Elements type="hex8" mat="1" name="Part1">
			<elem id="1">     1,   203,   304,   102,     2,   204,   305,   103</elem>
			<elem id="2">     2,   204,   305,   103,     3,   205,   306,   104</elem>
			<elem id="3">     3,   205,   306,   104,     4,   206,   307,   105</elem>
			<elem id="4">     4,   206,   307,   105,     5,   207,   308,   106</elem>
			<elem id="5">     5,   207,   308,   106,     6,   208,   309,   107</elem>
			<elem id="6">     6,   208,   309,   107,     7,   209,   310,   108</elem>
			<elem id="7">     7,   209,   310,   108,     8,   210,   311,   109</elem>
			<elem id="8">     8,   210,   311,   109,     9,   211,   312,   110</elem>
			<elem id="9">     9,   211,   312,   110,    10,   212,   313,   111</elem>
			<elem id="10">    10,   212,   313,   111,    11,   213,   314,   112</elem>
			<elem id="11">    11,   213,   314,   112,    12,   214,   315,   113</elem>
			<elem id="12">    12,   214,   315,   113,    13,   215,   316,   114</elem>
			<elem id="13">    13,   215,   316,   114,    14,   216,   317,   115</elem>
			<elem id="14">    14,   216,   317,   115,    15,   217,   318,   116</elem>
			<elem id="15">    15,   217,   318,   116,    16,   218,   319,   117</elem>
			<elem id="16">    16,   218,   319,   117,    17,   219,   320,   118</elem>
			<elem id="17">    17,   219,   320,   118,    18,   220,   321,   119</elem>
			<elem id="18">    18,   220,   321,   119,    19,   221,   322,   120</elem>
			<elem id="19">    19,   221,   322,   120,    20,   222,   323,   121</elem>
			<elem id="20">    20,   222,   323,   121,    21,   223,   324,   122</elem>
<!-- ... 80 like lines cut -->
		</Elements>
		<NodeSet name="FixedDisplacement01">
			<node id="1"/>
			<node id="2"/>
			<node id="3"/>
			<node id="4"/>
			<node id="5"/>
			<node id="6"/>
			<node id="7"/>
			<node id="8"/>
			<node id="9"/>
			<node id="10"/>
			<node id="11"/>
			<node id="12"/>
			<node id="13"/>
			<node id="14"/>
			<node id="15"/>
			<node id="16"/>
			<node id="17"/>
			<node id="18"/>
			<node id="19"/>
			<node id="20"/>
<!-- ... 182 like lines cut -->
		</NodeSet>
		<NodeSet name="FixedDisplacement02">
			<node id="1"/>
			<node id="2"/>
			<node id="3"/>
			<node id="4"/>
			<node id="5"/>
			<node id="6"/>
			<node id="7"/>
			<node id="8"/>
			<node id="9"/>
			<node id="10"/>
			<node id="11"/>
			<node id="12"/>
			<node id="13"/>
			<node id="14"/>
			<node id="15"/>
			<node id="16"/>
			<node id="17"/>
			<node id="18"/>
			<node id="19"/>
			<node id="20"/>
<!-- ... 182 like lines cut -->
		</NodeSet>
		<NodeSet name="FixedDisplacement03">
			<node id="1"/>
			<node id="102"/>
			<node id="203"/>
			<node id="304"/>
		</NodeSet>
		<NodeSet name="FixedFluidPressure01">
			<node id="1"/>
			<node id="2"/>
			<node id="3"/>
			<node id="4"/>
			<node id="5"/>
			<node id="6"/>
			<node id="7"/>
			<node id="8"/>
			<node id="9"/>
			<node id="10"/>
			<node id="11"/>
			<node id="12"/>
			<node id="13"/>
			<node id="14"/>
			<node id="15"/>
			<node id="16"/>
			<node id="17"/>
			<node id="18"/>
			<node id="19"/>
			<node id="20"/>
<!-- ... 384 like lines cut -->
		</NodeSet>
		<Surface name="TractionLoad1">
			<quad4 id="1">   101,   303,   404,   202</quad4>
		</Surface>
		<Surface name="surface01">
			<quad4 id="1">     1,   203,   204,     2</quad4>
			<quad4 id="2">     2,   204,   205,     3</quad4>
			<quad4 id="3">     3,   205,   206,     4</quad4>
			<quad4 id="4">     4,   206,   207,     5</quad4>
			<quad4 id="5">     5,   207,   208,     6</quad4>
			<quad4 id="6">     6,   208,   209,     7</quad4>
			<quad4 id="7">     7,   209,   210,     8</quad4>
			<quad4 id="8">     8,   210,   211,     9</quad4>
			<quad4 id="9">     9,   211,   212,    10</quad4>
			<quad4 id="10">    10,   212,   213,    11</quad4>
			<quad4 id="11">    11,   213,   214,    12</quad4>
			<quad4 id="12">    12,   214,   215,    13</quad4>
			<quad4 id="13">    13,   215,   216,    14</quad4>
			<quad4 id="14">    14,   216,   217,    15</quad4>
			<quad4 id="15">    15,   217,   218,    16</quad4>
			<quad4 id="16">    16,   218,   219,    17</quad4>
			<quad4 id="17">    17,   219,   220,    18</quad4>
			<quad4 id="18">    18,   220,   221,    19</quad4>
			<quad4 id="19">    19,   221,   222,    20</quad4>
			<quad4 id="20">    20,   222,   223,    21</quad4>
<!-- ... 380 like lines cut -->
		</Surface>
		<ElementSet name="unnamed_set01">
			<elem id="58"/>
		</ElementSet>
	</Geometry>
	<Boundary>
		<fix bc="x" node_set="FixedDisplacement01"/>
		<fix bc="y" node_set="FixedDisplacement02"/>
		<fix bc="z" node_set="FixedDisplacement03"/>
		<fix bc="p" node_set="FixedFluidPressure01"/>
	</Boundary>
	<Loads>
		<surface_load type="traction" surface="TractionLoad1">
			<scale lc="1">1</scale>
			<traction>0,0,-1</traction>
		</surface_load>
		<surface_load type="traction" surface="surface01">
			<scale lc="2">-0.25</scale>
			<traction>0,0,1</traction>
		</surface_load>
	</Loads>
	<LoadData>
		<loadcurve id="1" type="step">
			<point>0,0</point>
			<point>1,10</point>
		</loadcurve>
		<loadcurve id="2" type="step">
			<point>0,0</point>
			<point>1,1</point>
		</loadcurve>
	</LoadData>
	<Output>
		<plotfile type="febio">
			<var type="density"/>
			<var type="displacement"/>
			<var type="specific strain energy"/>
			<var type="strain energy density"/>
			<var type="stress"/>
			<var type="effective fluid pressure"/>
			<var type="fluid pressure"/>
			<var type="fluid flux"/>
			<var type="sbm referential apparent density"/>
			<var type="sbm concentration"/>
		</plotfile>
		<logfile>
			<element_data data="sz" elem_set="unnamed_set01"/>
		</logfile>
	</Output>
</febio_spec>
