<?xml version="1.0" encoding="ISO-8859-1"?>
<febio_spec version="2.5">
	<Module type="solid"/>
	<Control>
		<time_steps>10</time_steps>
		<step_size>0.1</step_size>
		<max_refs>15</max_refs>
		<max_ups>10</max_ups>
		<diverge_reform>1</diverge_reform>
		<reform_each_time_step>1</reform_each_time_step>
		<dtol>0.001</dtol>
		<etol>0.01</etol>
		<rtol>0</rtol>
		<lstol>0.9</lstol>
		<min_residual>1e-020</min_residual>
		<qnmethod>0</qnmethod>
		<time_stepper>
			<dtmin>0.01</dtmin>
			<dtmax>0.1</dtmax>
			<max_retries>5</max_retries>
			<opt_iter>10</opt_iter>
		</time_stepper>
		<analysis type="static"/>
	</Control>
	<Globals>
		<Constants>
			<T>0</T>
			<R>0</R>
			<Fc>0</Fc>
		</Constants>
	</Globals>
	<Material>
		<material id="1" name="Material 1" type="neo-Hookean">
			<density>1</density>
			<E>1</E>
			<v>0.3</v>
		</material>
	</Material>
	<Geometry>
		<Nodes name="di02">
			<node id="1"> 1.5000000e+000,-5.0000000e-001, 0.0000000e+000</node>
			<node id="2"> 1.5000000e+000,-5.0000000e-001, 5.0000000e-001</node>
			<node id="3"> 1.5000000e+000,-5.0000000e-001, 1.0000000e+000</node>
			<node id="4"> 1.5000000e+000, 0.0000000e+000, 0.0000000e+000</node>
			<node id="5"> 1.5000000e+000, 0.0000000e+000, 5.0000000e-001</node>
			<node id="6"> 1.5000000e+000, 0.0000000e+000, 1.0000000e+000</node>
			<node id="7"> 1.5000000e+000, 5.0000000e-001, 0.0000000e+000</node>
			<node id="8"> 1.5000000e+000, 5.0000000e-001, 5.0000000e-001</node>
			<node id="9"> 1.5000000e+000, 5.0000000e-001, 1.0000000e+000</node>
			<node id="10"> 2.0000000e+000,-5.0000000e-001, 0.0000000e+000</node>
			<node id="11"> 2.0000000e+000,-5.0000000e-001, 5.0000000e-001</node>
			<node id="12"> 2.0000000e+000,-5.0000000e-001, 1.0000000e+000</node>
			<node id="13"> 2.0000000e+000, 0.0000000e+000, 0.0000000e+000</node>
			<node id="14"> 2.0000000e+000, 0.0000000e+000, 5.0000000e-001</node>
			<node id="15"> 2.0000000e+000, 0.0000000e+000, 1.0000000e+000</node>
			<node id="16"> 2.0000000e+000, 5.0000000e-001, 0.0000000e+000</node>
			<node id="17"> 2.0000000e+000, 5.0000000e-001, 5.0000000e-001</node>
			<node id="18"> 2.0000000e+000, 5.0000000e-001, 1.0000000e+000</node>
			<node id="19"> 2.5000000e+000,-5.0000000e-001, 0.0000000e+000</node>
			<node id="20"> 2.5000000e+000,-5.0000000e-001, 5.0000000e-001</node>
<!-- ... 34 like lines cut -->
		</Nodes>
		<Elements type="hex8" mat="1" name="Part1">
			<elem id="1">     1,    10,    13,     4,     2,    11,    14,     5</elem>
			<elem id="2">     2,    11,    14,     5,     3,    12,    15,     6</elem>
			<elem id="3">     4,    13,    16,     7,     5,    14,    17,     8</elem>
			<elem id="4">     5,    14,    17,     8,     6,    15,    18,     9</elem>
			<elem id="5">    10,    19,    22,    13,    11,    20,    23,    14</elem>
			<elem id="6">    11,    20,    23,    14,    12,    21,    24,    15</elem>
			<elem id="7">    13,    22,    25,    16,    14,    23,    26,    17</elem>
			<elem id="8">    14,    23,    26,    17,    15,    24,    27,    18</elem>
			<elem id="9">    28,    37,    40,    31,    29,    38,    41,    32</elem>
			<elem id="10">    29,    38,    41,    32,    30,    39,    42,    33</elem>
			<elem id="11">    31,    40,    43,    34,    32,    41,    44,    35</elem>
			<elem id="12">    32,    41,    44,    35,    33,    42,    45,    36</elem>
			<elem id="13">    37,    46,    49,    40,    38,    47,    50,    41</elem>
			<elem id="14">    38,    47,    50,    41,    39,    48,    51,    42</elem>
			<elem id="15">    40,    49,    52,    43,    41,    50,    53,    44</elem>
			<elem id="16">    41,    50,    53,    44,    42,    51,    54,    45</elem>
		</Elements>
		<NodeSet name="FixedDisplacement01">
			<node id="1"/>
			<node id="4"/>
			<node id="7"/>
			<node id="10"/>
			<node id="13"/>
			<node id="16"/>
			<node id="19"/>
			<node id="22"/>
			<node id="25"/>
			<node id="28"/>
			<node id="29"/>
			<node id="30"/>
			<node id="31"/>
			<node id="32"/>
			<node id="33"/>
			<node id="34"/>
			<node id="35"/>
			<node id="36"/>
		</NodeSet>
		<NodeSet name="FixedDisplacement02">
			<node id="1"/>
			<node id="2"/>
			<node id="3"/>
			<node id="10"/>
			<node id="11"/>
			<node id="12"/>
			<node id="19"/>
			<node id="20"/>
			<node id="21"/>
			<node id="28"/>
			<node id="29"/>
			<node id="30"/>
			<node id="31"/>
			<node id="32"/>
			<node id="33"/>
			<node id="34"/>
			<node id="35"/>
			<node id="36"/>
		</NodeSet>
		<NodeSet name="FixedDisplacement03">
			<node id="28"/>
			<node id="29"/>
			<node id="30"/>
			<node id="31"/>
			<node id="32"/>
			<node id="33"/>
			<node id="34"/>
			<node id="35"/>
			<node id="36"/>
		</NodeSet>
		<NodeSet name="PrescribedBC87">
			<node id="19"/>
			<node id="20"/>
			<node id="21"/>
			<node id="22"/>
			<node id="23"/>
			<node id="24"/>
			<node id="25"/>
			<node id="26"/>
			<node id="27"/>
		</NodeSet>
		<ElementSet name="unnamed_set01">
			<elem id="1"/>
		</ElementSet>
		<DiscreteSet name="Spring01">
			<delem>50,5</delem>
		</DiscreteSet>
	</Geometry>
	<Boundary>
		<fix bc="z" node_set="FixedDisplacement01"/>
		<fix bc="y" node_set="FixedDisplacement02"/>
		<fix bc="x" node_set="FixedDisplacement03"/>
		<prescribe bc="x" node_set="PrescribedBC87">
			<scale lc="1">1</scale>
			<relative>0</relative>
		</prescribe>
	</Boundary>
	<Discrete>
		<discrete_material id="1" name="Spring01" type="linear spring">
			<E>1</E>
		</discrete_material>
		<discrete dmat="1" discrete_set="Spring01"/>
	</Discrete>
	<LoadData>
		<loadcurve id="1" type="linear">
			<point>0,0</point>
			<point>1,1</point>
		</loadcurve>
	</LoadData>
	<Output>
		<plotfile type="febio"/>
		<logfile>
			<element_data data="Ey" elem_set="unnamed_set01"/>
		</logfile>
	</Output>
</febio_spec>
