<?xml version="1.0" encoding="ISO-8859-1"?>
<febio_spec version="2.5">
	<Module type="solid"/>
	<Control>
		<time_steps>10</time_steps>
		<step_size>0.1</step_size>
		<max_refs>15</max_refs>
		<max_ups>10</max_ups>
		<diverge_reform>1</diverge_reform>
		<reform_each_time_step>1</reform_each_time_step>
		<dtol>0.001</dtol>
		<etol>0.01</etol>
		<rtol>0</rtol>
		<lstol>0.9</lstol>
		<min_residual>1e-020</min_residual>
		<qnmethod>0</qnmethod>
		<time_stepper>
			<dtmin>0.01</dtmin>
			<dtmax>0.1</dtmax>
			<max_retries>5</max_retries>
			<opt_iter>10</opt_iter>
		</time_stepper>
		<analysis type="dynamic"/>
		<alpha>1</alpha>
		<beta>0.25</beta>
		<gamma>0.5</gamma>
	</Control>
	<Globals>
		<Constants>
			<T>0</T>
			<R>0</R>
			<Fc>0</Fc>
		</Constants>
	</Globals>
	<Material>
		<material id="1" name="Material 1" type="neo-Hookean">
			<density>1000</density>
			<E>1</E>
			<v>0</v>
		</material>
	</Material>
	<Geometry>
		<Nodes name="dy01">
			<node id="1">-5.0000000e-001,-5.0000000e-001, 0.0000000e+000</node>
			<node id="2">-5.0000000e-001,-5.0000000e-001, 1.0000000e+000</node>
			<node id="3">-5.0000000e-001, 5.0000000e-001, 0.0000000e+000</node>
			<node id="4">-5.0000000e-001, 5.0000000e-001, 1.0000000e+000</node>
			<node id="5"> 5.0000000e-001,-5.0000000e-001, 0.0000000e+000</node>
			<node id="6"> 5.0000000e-001,-5.0000000e-001, 1.0000000e+000</node>
			<node id="7"> 5.0000000e-001, 5.0000000e-001, 0.0000000e+000</node>
			<node id="8"> 5.0000000e-001, 5.0000000e-001, 1.0000000e+000</node>
		</Nodes>
		<Elements type="hex8" mat="1" name="Part4">
			<elem id="1">     1,     5,     7,     3,     2,     6,     8,     4</elem>
		</Elements>
		<NodeSet name="nodeset01">
			<node id="1"/>
		</NodeSet>
	</Geometry>
	<Loads>
		<body_load type="const">
			<x lc="1">0</x>
			<y lc="2">0</y>
			<z lc="3">1</z>
		</body_load>
	</Loads>
	<LoadData>
		<loadcurve id="1" type="smooth">
			<point>0,0</point>
			<point>1,1</point>
		</loadcurve>
		<loadcurve id="2" type="smooth">
			<point>0,0</point>
			<point>1,1</point>
		</loadcurve>
		<loadcurve id="3" type="linear">
			<point>0,1</point>
			<point>1,1</point>
		</loadcurve>
	</LoadData>
	<Output>
		<plotfile type="febio"/>
		<logfile>
			<node_data data="uz" node_set="nodeset01"/>
		</logfile>
	</Output>
</febio_spec>
