<?xml version="1.0" encoding="ISO-8859-1"?>
<febio_spec version="2.5">
	<Module type="solid"/>
	<Control>
		<time_steps>100</time_steps>
		<step_size>0.1</step_size>
		<max_refs>15</max_refs>
		<max_ups>10</max_ups>
		<diverge_reform>1</diverge_reform>
		<reform_each_time_step>1</reform_each_time_step>
		<dtol>0.001</dtol>
		<etol>0.01</etol>
		<rtol>0</rtol>
		<lstol>0.9</lstol>
		<min_residual>1e-020</min_residual>
		<qnmethod>0</qnmethod>
		<analysis type="dynamic"/>
		<alpha>1</alpha>
		<beta>0.25</beta>
		<gamma>0.5</gamma>
	</Control>
	<Globals>
		<Constants>
			<T>0</T>
			<R>0</R>
			<Fc>0</Fc>
		</Constants>
	</Globals>
	<Material>
		<material id="1" name="Material 1" type="neo-Hookean">
			<density>1</density>
			<E>100</E>
			<v>0</v>
		</material>
		<material id="2" name="Material 2" type="neo-Hookean">
			<density>1</density>
			<E>100</E>
			<v>0</v>
		</material>
	</Material>
	<Geometry>
		<Nodes name="dy09">
			<node id="1"> 1.8000000e+000, 0.0000000e+000, 0.0000000e+000</node>
			<node id="2"> 1.8666667e+000, 0.0000000e+000, 0.0000000e+000</node>
			<node id="3"> 1.9333333e+000, 0.0000000e+000, 0.0000000e+000</node>
			<node id="4"> 2.0000000e+000, 0.0000000e+000, 0.0000000e+000</node>
			<node id="5"> 1.7391036e+000, 3.0614675e-001, 0.0000000e+000</node>
			<node id="6"> 1.8006956e+000, 3.3165897e-001, 0.0000000e+000</node>
			<node id="7"> 1.8622876e+000, 3.5717120e-001, 0.0000000e+000</node>
			<node id="8"> 1.9238795e+000, 3.8268343e-001, 0.0000000e+000</node>
			<node id="9"> 1.5656854e+000, 5.6568543e-001, 0.0000000e+000</node>
			<node id="10"> 1.6128259e+000, 6.1282587e-001, 0.0000000e+000</node>
			<node id="11"> 1.6599663e+000, 6.5996632e-001, 0.0000000e+000</node>
			<node id="12"> 1.7071068e+000, 7.0710677e-001, 0.0000000e+000</node>
			<node id="13"> 1.3061468e+000, 7.3910363e-001, 0.0000000e+000</node>
			<node id="14"> 1.3316590e+000, 8.0069560e-001, 0.0000000e+000</node>
			<node id="15"> 1.3571712e+000, 8.6228756e-001, 0.0000000e+000</node>
			<node id="16"> 1.3826835e+000, 9.2387952e-001, 0.0000000e+000</node>
			<node id="17"> 1.0000000e+000, 8.0000001e-001, 0.0000000e+000</node>
			<node id="18"> 1.0000000e+000, 8.6666667e-001, 0.0000000e+000</node>
			<node id="19"> 1.0000000e+000, 9.3333334e-001, 0.0000000e+000</node>
			<node id="20"> 1.0000000e+000, 1.0000000e+000, 0.0000000e+000</node>
<!-- ... 3948 like lines cut -->
		</Nodes>
		<Elements type="hex8" mat="1" name="Part12">
			<elem id="1">  1985,  1986,  1990,  1989,  2049,  2050,  2054,  2053</elem>
			<elem id="2">  1986,  1987,  1991,  1990,  2050,  2051,  2055,  2054</elem>
			<elem id="3">  1987,  1988,  1992,  1991,  2051,  2052,  2056,  2055</elem>
			<elem id="4">  1989,  1990,  1994,  1993,  2053,  2054,  2058,  2057</elem>
			<elem id="5">  1990,  1991,  1995,  1994,  2054,  2055,  2059,  2058</elem>
			<elem id="6">  1991,  1992,  1996,  1995,  2055,  2056,  2060,  2059</elem>
			<elem id="7">  1993,  1994,  1998,  1997,  2057,  2058,  2062,  2061</elem>
			<elem id="8">  1994,  1995,  1999,  1998,  2058,  2059,  2063,  2062</elem>
			<elem id="9">  1995,  1996,  2000,  1999,  2059,  2060,  2064,  2063</elem>
			<elem id="10">  1997,  1998,  2002,  2001,  2061,  2062,  2066,  2065</elem>
			<elem id="11">  1998,  1999,  2003,  2002,  2062,  2063,  2067,  2066</elem>
			<elem id="12">  1999,  2000,  2004,  2003,  2063,  2064,  2068,  2067</elem>
			<elem id="13">  2001,  2002,  2006,  2005,  2065,  2066,  2070,  2069</elem>
			<elem id="14">  2002,  2003,  2007,  2006,  2066,  2067,  2071,  2070</elem>
			<elem id="15">  2003,  2004,  2008,  2007,  2067,  2068,  2072,  2071</elem>
			<elem id="16">  2005,  2006,  2010,  2009,  2069,  2070,  2074,  2073</elem>
			<elem id="17">  2006,  2007,  2011,  2010,  2070,  2071,  2075,  2074</elem>
			<elem id="18">  2007,  2008,  2012,  2011,  2071,  2072,  2076,  2075</elem>
			<elem id="19">  2009,  2010,  2014,  2013,  2073,  2074,  2078,  2077</elem>
			<elem id="20">  2010,  2011,  2015,  2014,  2074,  2075,  2079,  2078</elem>
<!-- ... 1420 like lines cut -->
		</Elements>
		<Elements type="hex8" mat="2" name="Part13">
			<elem id="1441">     1,     2,     6,     5,    65,    66,    70,    69</elem>
			<elem id="1442">     2,     3,     7,     6,    66,    67,    71,    70</elem>
			<elem id="1443">     3,     4,     8,     7,    67,    68,    72,    71</elem>
			<elem id="1444">     5,     6,    10,     9,    69,    70,    74,    73</elem>
			<elem id="1445">     6,     7,    11,    10,    70,    71,    75,    74</elem>
			<elem id="1446">     7,     8,    12,    11,    71,    72,    76,    75</elem>
			<elem id="1447">     9,    10,    14,    13,    73,    74,    78,    77</elem>
			<elem id="1448">    10,    11,    15,    14,    74,    75,    79,    78</elem>
			<elem id="1449">    11,    12,    16,    15,    75,    76,    80,    79</elem>
			<elem id="1450">    13,    14,    18,    17,    77,    78,    82,    81</elem>
			<elem id="1451">    14,    15,    19,    18,    78,    79,    83,    82</elem>
			<elem id="1452">    15,    16,    20,    19,    79,    80,    84,    83</elem>
			<elem id="1453">    17,    18,    22,    21,    81,    82,    86,    85</elem>
			<elem id="1454">    18,    19,    23,    22,    82,    83,    87,    86</elem>
			<elem id="1455">    19,    20,    24,    23,    83,    84,    88,    87</elem>
			<elem id="1456">    21,    22,    26,    25,    85,    86,    90,    89</elem>
			<elem id="1457">    22,    23,    27,    26,    86,    87,    91,    90</elem>
			<elem id="1458">    23,    24,    28,    27,    87,    88,    92,    91</elem>
			<elem id="1459">    25,    26,    30,    29,    89,    90,    94,    93</elem>
			<elem id="1460">    26,    27,    31,    30,    90,    91,    95,    94</elem>
<!-- ... 1420 like lines cut -->
		</Elements>
		<NodeSet name="InitialVelocity01">
			<node id="1985"/>
			<node id="1986"/>
			<node id="1987"/>
			<node id="1988"/>
			<node id="1989"/>
			<node id="1990"/>
			<node id="1991"/>
			<node id="1992"/>
			<node id="1993"/>
			<node id="1994"/>
			<node id="1995"/>
			<node id="1996"/>
			<node id="1997"/>
			<node id="1998"/>
			<node id="1999"/>
			<node id="2000"/>
			<node id="2001"/>
			<node id="2002"/>
			<node id="2003"/>
			<node id="2004"/>
<!-- ... 1964 like lines cut -->
		</NodeSet>
		<Surface name="MasterSurface01">
			<quad4 id="1">     4,     8,    72,    68</quad4>
			<quad4 id="2">     8,    12,    76,    72</quad4>
			<quad4 id="3">    12,    16,    80,    76</quad4>
			<quad4 id="4">    16,    20,    84,    80</quad4>
			<quad4 id="5">    52,    56,   120,   116</quad4>
			<quad4 id="6">    56,    60,   124,   120</quad4>
			<quad4 id="7">    60,    64,   128,   124</quad4>
			<quad4 id="8">    64,     4,    68,   128</quad4>
			<quad4 id="9">    68,    72,   136,   132</quad4>
			<quad4 id="10">    72,    76,   140,   136</quad4>
			<quad4 id="11">    76,    80,   144,   140</quad4>
			<quad4 id="12">    80,    84,   148,   144</quad4>
			<quad4 id="13">   116,   120,   184,   180</quad4>
			<quad4 id="14">   120,   124,   188,   184</quad4>
			<quad4 id="15">   124,   128,   192,   188</quad4>
			<quad4 id="16">   128,    68,   132,   192</quad4>
			<quad4 id="17">   132,   136,   200,   196</quad4>
			<quad4 id="18">   136,   140,   204,   200</quad4>
			<quad4 id="19">   140,   144,   208,   204</quad4>
			<quad4 id="20">   144,   148,   212,   208</quad4>
<!-- ... 220 like lines cut -->
		</Surface>
		<Surface name="SlaveSurface01">
			<quad4 id="1">  2004,  2008,  2072,  2068</quad4>
			<quad4 id="2">  2008,  2012,  2076,  2072</quad4>
			<quad4 id="3">  2012,  2016,  2080,  2076</quad4>
			<quad4 id="4">  2016,  2020,  2084,  2080</quad4>
			<quad4 id="5">  2020,  2024,  2088,  2084</quad4>
			<quad4 id="6">  2024,  2028,  2092,  2088</quad4>
			<quad4 id="7">  2028,  2032,  2096,  2092</quad4>
			<quad4 id="8">  2032,  2036,  2100,  2096</quad4>
			<quad4 id="9">  2068,  2072,  2136,  2132</quad4>
			<quad4 id="10">  2072,  2076,  2140,  2136</quad4>
			<quad4 id="11">  2076,  2080,  2144,  2140</quad4>
			<quad4 id="12">  2080,  2084,  2148,  2144</quad4>
			<quad4 id="13">  2084,  2088,  2152,  2148</quad4>
			<quad4 id="14">  2088,  2092,  2156,  2152</quad4>
			<quad4 id="15">  2092,  2096,  2160,  2156</quad4>
			<quad4 id="16">  2096,  2100,  2164,  2160</quad4>
			<quad4 id="17">  2132,  2136,  2200,  2196</quad4>
			<quad4 id="18">  2136,  2140,  2204,  2200</quad4>
			<quad4 id="19">  2140,  2144,  2208,  2204</quad4>
			<quad4 id="20">  2144,  2148,  2212,  2208</quad4>
<!-- ... 220 like lines cut -->
		</Surface>
		<ElementSet name="unnamed_set01">
			<elem id="771"/>
		</ElementSet>
		<SurfacePair name="SlidingContact01">
			<master surface="MasterSurface01"/>
			<slave surface="SlaveSurface01"/>
		</SurfacePair>
	</Geometry>
	<Boundary>
	</Boundary>
	<Contact>
		<contact type="sliding-facet-on-facet" name="SlidingContact01" surface_pair="SlidingContact01">
			<laugon>0</laugon>
			<tolerance>0.01</tolerance>
			<penalty>400</penalty>
			<two_pass>1</two_pass>
			<auto_penalty>0</auto_penalty>
			<fric_coeff>0</fric_coeff>
			<fric_penalty>0</fric_penalty>
			<search_tol>0.01</search_tol>
			<minaug>0</minaug>
			<maxaug>10</maxaug>
			<gaptol>0</gaptol>
			<seg_up>0</seg_up>
		</contact>
	</Contact>
	<Initial>
		<init bc="vx" node_set="InitialVelocity01">
			<value>-1</value>
		</init>
	</Initial>
	<Output>
		<plotfile type="febio"/>
		<logfile>
			<element_data data="sy" elem_set="unnamed_set01"/>
		</logfile>
	</Output>
</febio_spec>
