<?xml version="1.0" encoding="ISO-8859-1"?>
<febio_spec version="2.5">
	<Module type="fluid"/>
	<Control>
		<time_steps>25</time_steps>
		<step_size>0.2</step_size>
		<max_refs>25</max_refs>
		<max_ups>0</max_ups>
		<diverge_reform>1</diverge_reform>
		<reform_each_time_step>1</reform_each_time_step>
		<vtol>0.001</vtol>
		<ftol>0</ftol>
		<etol>0.01</etol>
		<rtol>0</rtol>
		<lstol>0</lstol>
		<min_residual>1e-18</min_residual>
		<rhoi>0</rhoi>
		<qnmethod>1</qnmethod>
		<analysis type="steady-state"/>
		<symmetric_stiffness>0</symmetric_stiffness>
		<equation_scheme>1</equation_scheme>
	</Control>
	<Globals>
		<Constants>
			<T>0</T>
			<R>0</R>
			<Fc>0</Fc>
		</Constants>
	</Globals>
	<Material>
		<material id="1" name="Material1" type="fluid">
			<density>1.06</density>
			<k>2.2e+010</k>
			<viscous type="Newtonian fluid">
				<mu>0.0345</mu>
				<kappa>0</kappa>
			</viscous>
		</material>
	</Material>
	<Geometry>
		<Nodes name="fl01">
			<node id="1">-5.0000000e-001,-5.0000000e-001, 0.0000000e+000</node>
			<node id="2">-5.0000000e-001,-5.0000000e-001, 1.0000000e+000</node>
			<node id="3">-5.0000000e-001,-4.0000000e-001, 0.0000000e+000</node>
			<node id="4">-5.0000000e-001,-4.0000000e-001, 1.0000000e+000</node>
			<node id="5">-5.0000000e-001,-3.0000000e-001, 0.0000000e+000</node>
			<node id="6">-5.0000000e-001,-3.0000000e-001, 1.0000000e+000</node>
			<node id="7">-5.0000000e-001,-2.0000000e-001, 0.0000000e+000</node>
			<node id="8">-5.0000000e-001,-2.0000000e-001, 1.0000000e+000</node>
			<node id="9">-5.0000000e-001,-1.0000000e-001, 0.0000000e+000</node>
			<node id="10">-5.0000000e-001,-1.0000000e-001, 1.0000000e+000</node>
			<node id="11">-5.0000000e-001,-2.7755576e-017, 0.0000000e+000</node>
			<node id="12">-5.0000000e-001,-2.7755576e-017, 1.0000000e+000</node>
			<node id="13">-5.0000000e-001, 1.0000000e-001, 0.0000000e+000</node>
			<node id="14">-5.0000000e-001, 1.0000000e-001, 1.0000000e+000</node>
			<node id="15">-5.0000000e-001, 2.0000000e-001, 0.0000000e+000</node>
			<node id="16">-5.0000000e-001, 2.0000000e-001, 1.0000000e+000</node>
			<node id="17">-5.0000000e-001, 3.0000000e-001, 0.0000000e+000</node>
			<node id="18">-5.0000000e-001, 3.0000000e-001, 1.0000000e+000</node>
			<node id="19">-5.0000000e-001, 4.0000000e-001, 0.0000000e+000</node>
			<node id="20">-5.0000000e-001, 4.0000000e-001, 1.0000000e+000</node>
<!-- ... 222 like lines cut -->
		</Nodes>
		<Elements type="hex8" mat="1" name="Part1">
			<elem id="1">     1,    23,    25,     3,     2,    24,    26,     4</elem>
			<elem id="2">     3,    25,    27,     5,     4,    26,    28,     6</elem>
			<elem id="3">     5,    27,    29,     7,     6,    28,    30,     8</elem>
			<elem id="4">     7,    29,    31,     9,     8,    30,    32,    10</elem>
			<elem id="5">     9,    31,    33,    11,    10,    32,    34,    12</elem>
			<elem id="6">    11,    33,    35,    13,    12,    34,    36,    14</elem>
			<elem id="7">    13,    35,    37,    15,    14,    36,    38,    16</elem>
			<elem id="8">    15,    37,    39,    17,    16,    38,    40,    18</elem>
			<elem id="9">    17,    39,    41,    19,    18,    40,    42,    20</elem>
			<elem id="10">    19,    41,    43,    21,    20,    42,    44,    22</elem>
			<elem id="11">    23,    45,    47,    25,    24,    46,    48,    26</elem>
			<elem id="12">    25,    47,    49,    27,    26,    48,    50,    28</elem>
			<elem id="13">    27,    49,    51,    29,    28,    50,    52,    30</elem>
			<elem id="14">    29,    51,    53,    31,    30,    52,    54,    32</elem>
			<elem id="15">    31,    53,    55,    33,    32,    54,    56,    34</elem>
			<elem id="16">    33,    55,    57,    35,    34,    56,    58,    36</elem>
			<elem id="17">    35,    57,    59,    37,    36,    58,    60,    38</elem>
			<elem id="18">    37,    59,    61,    39,    38,    60,    62,    40</elem>
			<elem id="19">    39,    61,    63,    41,    40,    62,    64,    42</elem>
			<elem id="20">    41,    63,    65,    43,    42,    64,    66,    44</elem>
<!-- ... 80 like lines cut -->
		</Elements>
		<NodeSet name="FixedFluidVelocity01">
			<node id="1"/>
			<node id="2"/>
			<node id="3"/>
			<node id="4"/>
			<node id="5"/>
			<node id="6"/>
			<node id="7"/>
			<node id="8"/>
			<node id="9"/>
			<node id="10"/>
			<node id="11"/>
			<node id="12"/>
			<node id="13"/>
			<node id="14"/>
			<node id="15"/>
			<node id="16"/>
			<node id="17"/>
			<node id="18"/>
			<node id="19"/>
			<node id="20"/>
<!-- ... 464 like lines cut -->
		</NodeSet>
		<NodeSet name="FixedFluidVelocity02">
			<node id="1"/>
			<node id="2"/>
			<node id="23"/>
			<node id="24"/>
			<node id="45"/>
			<node id="46"/>
			<node id="67"/>
			<node id="68"/>
			<node id="89"/>
			<node id="90"/>
			<node id="111"/>
			<node id="112"/>
			<node id="133"/>
			<node id="134"/>
			<node id="155"/>
			<node id="156"/>
			<node id="177"/>
			<node id="178"/>
			<node id="199"/>
			<node id="200"/>
			<node id="221"/>
			<node id="222"/>
		</NodeSet>
		<NodeSet name="FixedFluidDilatation01">
			<node id="1"/>
			<node id="2"/>
			<node id="3"/>
			<node id="4"/>
			<node id="5"/>
			<node id="6"/>
			<node id="7"/>
			<node id="8"/>
			<node id="9"/>
			<node id="10"/>
			<node id="11"/>
			<node id="12"/>
			<node id="13"/>
			<node id="14"/>
			<node id="15"/>
			<node id="16"/>
			<node id="17"/>
			<node id="18"/>
			<node id="19"/>
			<node id="20"/>
<!-- ... 68 like lines cut -->
		</NodeSet>
		<NodeSet name="FixedFluidVelocity03">
			<node id="1"/>
			<node id="2"/>
			<node id="3"/>
			<node id="4"/>
			<node id="5"/>
			<node id="6"/>
			<node id="7"/>
			<node id="8"/>
			<node id="9"/>
			<node id="10"/>
			<node id="11"/>
			<node id="12"/>
			<node id="13"/>
			<node id="14"/>
			<node id="15"/>
			<node id="16"/>
			<node id="17"/>
			<node id="18"/>
			<node id="19"/>
			<node id="20"/>
<!-- ... 166 like lines cut -->
		</NodeSet>
		<NodeSet name="PrescribedBC01">
			<node id="21"/>
			<node id="22"/>
			<node id="43"/>
			<node id="44"/>
			<node id="65"/>
			<node id="66"/>
			<node id="87"/>
			<node id="88"/>
			<node id="109"/>
			<node id="110"/>
			<node id="131"/>
			<node id="132"/>
			<node id="153"/>
			<node id="154"/>
			<node id="175"/>
			<node id="176"/>
			<node id="197"/>
			<node id="198"/>
			<node id="219"/>
			<node id="220"/>
			<node id="241"/>
			<node id="242"/>
		</NodeSet>
	</Geometry>
	<Boundary>
		<fix bc="wz" node_set="FixedFluidVelocity01"/>
		<fix bc="wx,wy" node_set="FixedFluidVelocity02"/>
		<fix bc="ef" node_set="FixedFluidDilatation01"/>
		<fix bc="wy" node_set="FixedFluidVelocity03"/>
		<prescribe bc="wx" node_set="PrescribedBC01">
			<scale lc="1">1</scale>
			<relative>0</relative>
		</prescribe>
	</Boundary>
	<LoadData>
		<loadcurve id="1" type="linear">
			<point>0,0</point>
			<point>0.2,0.01</point>
			<point>0.4,0.0177827941004</point>
			<point>0.6,0.0316227766017</point>
			<point>0.8,0.056234132519</point>
			<point>1,0.1</point>
			<point>1.2,0.177827941004</point>
			<point>1.4,0.316227766017</point>
			<point>1.6,0.56234132519</point>
			<point>1.8,1</point>
			<point>2,1.77827941004</point>
			<point>2.2,3.16227766017</point>
			<point>2.4,5.6234132519</point>
			<point>2.6,10</point>
			<point>2.8,17.7827941004</point>
			<point>3,31.6227766017</point>
			<point>3.2,56.234132519</point>
			<point>3.4,100</point>
			<point>3.6,177.827941004</point>
			<point>3.8,316.227766017</point>
<!-- ... 6 like lines cut -->
		</loadcurve>
	</LoadData>
	<Output>
		<plotfile type="febio">
			<var type="displacement"/>
			<var type="fluid pressure"/>
			<var type="fluid acceleration"/>
			<var type="fluid dilatation"/>
			<var type="fluid rate of deformation"/>
			<var type="fluid shear viscosity"/>
			<var type="fluid stress"/>
			<var type="fluid velocity"/>
			<var type="fluid vorticity"/>
			<var type="nodal fluid velocity"/>
		</plotfile>
	</Output>
</febio_spec>
