<?xml version="1.0" encoding="ISO-8859-1"?>
<febio_spec version="2.5">
	<Module type="fluid"/>
	<Control>
		<time_steps>1</time_steps>
		<step_size>1</step_size>
		<max_refs>15</max_refs>
		<max_ups>0</max_ups>
		<diverge_reform>1</diverge_reform>
		<reform_each_time_step>1</reform_each_time_step>
		<vtol>0.001</vtol>
		<ftol>0.001</ftol>
		<etol>0.01</etol>
		<rtol>0</rtol>
		<lstol>0.9</lstol>
		<min_residual>1e-020</min_residual>
		<rhoi>0</rhoi>
		<qnmethod>1</qnmethod>
		<analysis type="steady-state"/>
		<symmetric_stiffness>0</symmetric_stiffness>
	</Control>
	<Globals>
		<Constants>
			<T>0</T>
			<R>0</R>
			<Fc>0</Fc>
		</Constants>
	</Globals>
	<Material>
		<material id="1" name="Material1" type="fluid">
			<density>1</density>
			<k>1e+009</k>
			<viscous type="Newtonian fluid">
				<mu>1</mu>
				<kappa>0</kappa>
			</viscous>
		</material>
	</Material>
	<Geometry>
		<Nodes name="fl07">
			<node id="1">-2.0400635e+000,-1.7165063e+000, 2.7755576e-017</node>
			<node id="2">-2.0400635e+000,-1.7165063e+000, 2.5000000e-001</node>
			<node id="3">-2.0475817e+000,-1.7034845e+000, 2.7755576e-017</node>
			<node id="4">-2.0475817e+000,-1.7034845e+000, 2.5000000e-001</node>
			<node id="5">-2.0569793e+000,-1.6872073e+000, 2.7755576e-017</node>
			<node id="6">-2.0569793e+000,-1.6872073e+000, 2.5000000e-001</node>
			<node id="7">-2.0687264e+000,-1.6668607e+000, 2.7755576e-017</node>
			<node id="8">-2.0687264e+000,-1.6668607e+000, 2.5000000e-001</node>
			<node id="9">-2.0834103e+000,-1.6414275e+000, 2.7755576e-017</node>
			<node id="10">-2.0834103e+000,-1.6414275e+000, 2.5000000e-001</node>
			<node id="11">-2.1017651e+000,-1.6096360e+000, 2.7755576e-017</node>
			<node id="12">-2.1017651e+000,-1.6096360e+000, 2.5000000e-001</node>
			<node id="13">-2.1247087e+000,-1.5698966e+000, 2.7755576e-017</node>
			<node id="14">-2.1247087e+000,-1.5698966e+000, 2.5000000e-001</node>
			<node id="15">-2.1533881e+000,-1.5202224e+000, 2.7755576e-017</node>
			<node id="16">-2.1533881e+000,-1.5202224e+000, 2.5000000e-001</node>
			<node id="17">-2.1892374e+000,-1.4581296e+000, 2.7755576e-017</node>
			<node id="18">-2.1892374e+000,-1.4581296e+000, 2.5000000e-001</node>
			<node id="19">-2.2340490e+000,-1.3805136e+000, 2.7755576e-017</node>
			<node id="20">-2.2340490e+000,-1.3805136e+000, 2.5000000e-001</node>
<!-- ... 442 like lines cut -->
		</Nodes>
		<Elements type="hex8" mat="1" name="Part1">
			<elem id="1">     1,    23,    25,     3,     2,    24,    26,     4</elem>
			<elem id="2">     3,    25,    27,     5,     4,    26,    28,     6</elem>
			<elem id="3">     5,    27,    29,     7,     6,    28,    30,     8</elem>
			<elem id="4">     7,    29,    31,     9,     8,    30,    32,    10</elem>
			<elem id="5">     9,    31,    33,    11,    10,    32,    34,    12</elem>
			<elem id="6">    11,    33,    35,    13,    12,    34,    36,    14</elem>
			<elem id="7">    13,    35,    37,    15,    14,    36,    38,    16</elem>
			<elem id="8">    15,    37,    39,    17,    16,    38,    40,    18</elem>
			<elem id="9">    17,    39,    41,    19,    18,    40,    42,    20</elem>
			<elem id="10">    19,    41,    43,    21,    20,    42,    44,    22</elem>
			<elem id="11">    23,    45,    47,    25,    24,    46,    48,    26</elem>
			<elem id="12">    25,    47,    49,    27,    26,    48,    50,    28</elem>
			<elem id="13">    27,    49,    51,    29,    28,    50,    52,    30</elem>
			<elem id="14">    29,    51,    53,    31,    30,    52,    54,    32</elem>
			<elem id="15">    31,    53,    55,    33,    32,    54,    56,    34</elem>
			<elem id="16">    33,    55,    57,    35,    34,    56,    58,    36</elem>
			<elem id="17">    35,    57,    59,    37,    36,    58,    60,    38</elem>
			<elem id="18">    37,    59,    61,    39,    38,    60,    62,    40</elem>
			<elem id="19">    39,    61,    63,    41,    40,    62,    64,    42</elem>
			<elem id="20">    41,    63,    65,    43,    42,    64,    66,    44</elem>
<!-- ... 180 like lines cut -->
		</Elements>
		<NodeSet name="FixedFluidVelocity01">
			<node id="1"/>
			<node id="2"/>
			<node id="23"/>
			<node id="24"/>
			<node id="45"/>
			<node id="46"/>
			<node id="67"/>
			<node id="68"/>
			<node id="89"/>
			<node id="90"/>
			<node id="111"/>
			<node id="112"/>
			<node id="133"/>
			<node id="134"/>
			<node id="155"/>
			<node id="156"/>
			<node id="177"/>
			<node id="178"/>
			<node id="199"/>
			<node id="200"/>
<!-- ... 22 like lines cut -->
		</NodeSet>
		<NodeSet name="FixedFluidVelocity02">
			<node id="1"/>
			<node id="2"/>
			<node id="3"/>
			<node id="4"/>
			<node id="5"/>
			<node id="6"/>
			<node id="7"/>
			<node id="8"/>
			<node id="9"/>
			<node id="10"/>
			<node id="11"/>
			<node id="12"/>
			<node id="13"/>
			<node id="14"/>
			<node id="15"/>
			<node id="16"/>
			<node id="17"/>
			<node id="18"/>
			<node id="19"/>
			<node id="20"/>
<!-- ... 904 like lines cut -->
		</NodeSet>
		<NodeSet name="FixedFluidDilatation01">
			<node id="441"/>
			<node id="442"/>
			<node id="443"/>
			<node id="444"/>
			<node id="445"/>
			<node id="446"/>
			<node id="447"/>
			<node id="448"/>
			<node id="449"/>
			<node id="450"/>
			<node id="451"/>
			<node id="452"/>
			<node id="453"/>
			<node id="454"/>
			<node id="455"/>
			<node id="456"/>
			<node id="457"/>
			<node id="458"/>
			<node id="459"/>
			<node id="460"/>
			<node id="461"/>
			<node id="462"/>
		</NodeSet>
		<NodeSet name="PrescribedBC06">
			<node id="1"/>
			<node id="2"/>
			<node id="3"/>
			<node id="4"/>
			<node id="5"/>
			<node id="6"/>
			<node id="7"/>
			<node id="8"/>
			<node id="9"/>
			<node id="10"/>
			<node id="11"/>
			<node id="12"/>
			<node id="13"/>
			<node id="14"/>
			<node id="15"/>
			<node id="16"/>
			<node id="17"/>
			<node id="18"/>
			<node id="19"/>
			<node id="20"/>
			<node id="21"/>
			<node id="22"/>
		</NodeSet>
		<Surface name="NormalFlowSurface01">
			<quad4 id="1">    21,    19,    20,    22</quad4>
			<quad4 id="2">    19,    17,    18,    20</quad4>
			<quad4 id="3">    17,    15,    16,    18</quad4>
			<quad4 id="4">    15,    13,    14,    16</quad4>
			<quad4 id="5">    13,    11,    12,    14</quad4>
			<quad4 id="6">    11,     9,    10,    12</quad4>
			<quad4 id="7">     9,     7,     8,    10</quad4>
			<quad4 id="8">     7,     5,     6,     8</quad4>
			<quad4 id="9">     5,     3,     4,     6</quad4>
			<quad4 id="10">     3,     1,     2,     4</quad4>
		</Surface>
		<Surface name="NormalFlowSurface02">
			<quad4 id="1">   441,   443,   444,   442</quad4>
			<quad4 id="2">   443,   445,   446,   444</quad4>
			<quad4 id="3">   445,   447,   448,   446</quad4>
			<quad4 id="4">   447,   449,   450,   448</quad4>
			<quad4 id="5">   449,   451,   452,   450</quad4>
			<quad4 id="6">   451,   453,   454,   452</quad4>
			<quad4 id="7">   453,   455,   456,   454</quad4>
			<quad4 id="8">   455,   457,   458,   456</quad4>
			<quad4 id="9">   457,   459,   460,   458</quad4>
			<quad4 id="10">   459,   461,   462,   460</quad4>
		</Surface>
	</Geometry>
	<Boundary>
		<fix bc="wx,wy,wz" node_set="FixedFluidVelocity01"/>
		<fix bc="wz" node_set="FixedFluidVelocity02"/>
		<fix bc="ef" node_set="FixedFluidDilatation01"/>
		<prescribe bc="ef" node_set="PrescribedBC06">
			<scale lc="1">-1</scale>
			<relative>0</relative>
		</prescribe>
	</Boundary>
	<Contact>
	</Contact>
	<Constraints>
		<constraint type="normal fluid flow" name="NormalFlowSurface02" surface="NormalFlowSurface01">
			<laugon>1</laugon>
			<tol>0.2</tol>
			<penalty>1e+006</penalty>
			<minaug>0</minaug>
			<maxaug>10</maxaug>
			<rhs>0</rhs>
		</constraint>
		<constraint type="normal fluid flow" name="NormalFlowSurface03" surface="NormalFlowSurface02">
			<laugon>1</laugon>
			<tol>0.2</tol>
			<penalty>1e+006</penalty>
			<minaug>0</minaug>
			<maxaug>10</maxaug>
			<rhs>0</rhs>
		</constraint>
	</Constraints>
	<LoadData>
		<loadcurve id="1" type="smooth">
			<point>0,0</point>
			<point>1,1e-006</point>
		</loadcurve>
	</LoadData>
	<Output>
		<plotfile type="febio">
			<var type="velocity"/>
			<var type="fluid pressure"/>
			<var type="fluid acceleration"/>
			<var type="fluid dilatation"/>
			<var type="fluid rate of deformation"/>
			<var type="fluid stress"/>
			<var type="fluid velocity"/>
			<var type="fluid vorticity"/>
			<var type="nodal fluid velocity"/>
		</plotfile>
	</Output>
</febio_spec>
