<?xml version="1.0" encoding="ISO-8859-1"?>
<febio_spec version="2.5">
	<Module type="fluid"/>
	<Control>
		<time_steps>1</time_steps>
		<step_size>1</step_size>
		<max_refs>5</max_refs>
		<max_ups>50</max_ups>
		<diverge_reform>1</diverge_reform>
		<reform_each_time_step>1</reform_each_time_step>
		<vtol>0.001</vtol>
		<ftol>0.001</ftol>
		<etol>0.01</etol>
		<rtol>0.001</rtol>
		<lstol>0.9</lstol>
		<min_residual>0</min_residual>
		<rhoi>-1</rhoi>
		<qnmethod>1</qnmethod>
		<time_stepper>
			<dtmin>0.1</dtmin>
			<dtmax>1</dtmax>
			<max_retries>5</max_retries>
			<opt_iter>10</opt_iter>
		</time_stepper>
		<analysis type="steady-state"/>
		<symmetric_stiffness>0</symmetric_stiffness>
		<equation_scheme>1</equation_scheme>
	</Control>
	<Globals>
		<Constants>
			<T>0</T>
			<R>0</R>
			<Fc>0</Fc>
		</Constants>
	</Globals>
	<Material>
		<material id="1" name="Material1" type="fluid">
			<density>1</density>
			<k>1e+009</k>
			<viscous type="Newtonian fluid">
				<mu>1</mu>
				<kappa>0</kappa>
			</viscous>
		</material>
	</Material>
	<Geometry>
		<Nodes name="Object01">
			<node id="1">-2.5000000e+000,-5.0000000e-001, 0.0000000e+000</node>
			<node id="2">-2.5000000e+000,-5.0000000e-001, 1.0000000e-001</node>
			<node id="3">-2.5000000e+000,-4.8826828e-001, 0.0000000e+000</node>
			<node id="4">-2.5000000e+000,-4.8826828e-001, 1.0000000e-001</node>
			<node id="5">-2.5000000e+000,-4.7301704e-001, 0.0000000e+000</node>
			<node id="6">-2.5000000e+000,-4.7301704e-001, 1.0000000e-001</node>
			<node id="7">-2.5000000e+000,-4.5319044e-001, 0.0000000e+000</node>
			<node id="8">-2.5000000e+000,-4.5319044e-001, 1.0000000e-001</node>
			<node id="9">-2.5000000e+000,-4.2741585e-001, 0.0000000e+000</node>
			<node id="10">-2.5000000e+000,-4.2741585e-001, 1.0000000e-001</node>
			<node id="11">-2.5000000e+000,-3.9390888e-001, 0.0000000e+000</node>
			<node id="12">-2.5000000e+000,-3.9390888e-001, 1.0000000e-001</node>
			<node id="13">-2.5000000e+000,-3.5034983e-001, 0.0000000e+000</node>
			<node id="14">-2.5000000e+000,-3.5034983e-001, 1.0000000e-001</node>
			<node id="15">-2.5000000e+000,-2.9372306e-001, 0.0000000e+000</node>
			<node id="16">-2.5000000e+000,-2.9372306e-001, 1.0000000e-001</node>
			<node id="17">-2.5000000e+000,-2.2010826e-001, 0.0000000e+000</node>
			<node id="18">-2.5000000e+000,-2.2010826e-001, 1.0000000e-001</node>
			<node id="19">-2.5000000e+000,-1.2440902e-001, 0.0000000e+000</node>
			<node id="20">-2.5000000e+000,-1.2440902e-001, 1.0000000e-001</node>
<!-- ... 862 like lines cut -->
		</Nodes>
		<Elements type="hex8" mat="1" name="Part1">
			<elem id="1">     1,    43,    45,     3,     2,    44,    46,     4</elem>
			<elem id="2">     3,    45,    47,     5,     4,    46,    48,     6</elem>
			<elem id="3">     5,    47,    49,     7,     6,    48,    50,     8</elem>
			<elem id="4">     7,    49,    51,     9,     8,    50,    52,    10</elem>
			<elem id="5">     9,    51,    53,    11,    10,    52,    54,    12</elem>
			<elem id="6">    11,    53,    55,    13,    12,    54,    56,    14</elem>
			<elem id="7">    13,    55,    57,    15,    14,    56,    58,    16</elem>
			<elem id="8">    15,    57,    59,    17,    16,    58,    60,    18</elem>
			<elem id="9">    17,    59,    61,    19,    18,    60,    62,    20</elem>
			<elem id="10">    19,    61,    63,    21,    20,    62,    64,    22</elem>
			<elem id="11">    21,    63,    65,    23,    22,    64,    66,    24</elem>
			<elem id="12">    23,    65,    67,    25,    24,    66,    68,    26</elem>
			<elem id="13">    25,    67,    69,    27,    26,    68,    70,    28</elem>
			<elem id="14">    27,    69,    71,    29,    28,    70,    72,    30</elem>
			<elem id="15">    29,    71,    73,    31,    30,    72,    74,    32</elem>
			<elem id="16">    31,    73,    75,    33,    32,    74,    76,    34</elem>
			<elem id="17">    33,    75,    77,    35,    34,    76,    78,    36</elem>
			<elem id="18">    35,    77,    79,    37,    36,    78,    80,    38</elem>
			<elem id="19">    37,    79,    81,    39,    38,    80,    82,    40</elem>
			<elem id="20">    39,    81,    83,    41,    40,    82,    84,    42</elem>
<!-- ... 380 like lines cut -->
		</Elements>
		<NodeSet name="FixedFluidVelocity1">
			<node id="1"/>
			<node id="2"/>
			<node id="41"/>
			<node id="42"/>
			<node id="43"/>
			<node id="44"/>
			<node id="83"/>
			<node id="84"/>
			<node id="85"/>
			<node id="86"/>
			<node id="125"/>
			<node id="126"/>
			<node id="127"/>
			<node id="128"/>
			<node id="167"/>
			<node id="168"/>
			<node id="169"/>
			<node id="170"/>
			<node id="209"/>
			<node id="210"/>
<!-- ... 148 like lines cut -->
		</NodeSet>
		<NodeSet name="FixedFluidDilatation1">
			<node id="841"/>
			<node id="842"/>
			<node id="843"/>
			<node id="844"/>
			<node id="845"/>
			<node id="846"/>
			<node id="847"/>
			<node id="848"/>
			<node id="849"/>
			<node id="850"/>
			<node id="851"/>
			<node id="852"/>
			<node id="853"/>
			<node id="854"/>
			<node id="855"/>
			<node id="856"/>
			<node id="857"/>
			<node id="858"/>
			<node id="859"/>
			<node id="860"/>
<!-- ... 22 like lines cut -->
		</NodeSet>
		<NodeSet name="FixedFluidVelocity2">
			<node id="1"/>
			<node id="2"/>
			<node id="3"/>
			<node id="4"/>
			<node id="5"/>
			<node id="6"/>
			<node id="7"/>
			<node id="8"/>
			<node id="9"/>
			<node id="10"/>
			<node id="11"/>
			<node id="12"/>
			<node id="13"/>
			<node id="14"/>
			<node id="15"/>
			<node id="16"/>
			<node id="17"/>
			<node id="18"/>
			<node id="19"/>
			<node id="20"/>
<!-- ... 148 like lines cut -->
		</NodeSet>
		<NodeSet name="FixedFluidVelocity3">
			<node id="1"/>
			<node id="2"/>
			<node id="3"/>
			<node id="4"/>
			<node id="5"/>
			<node id="6"/>
			<node id="7"/>
			<node id="8"/>
			<node id="9"/>
			<node id="10"/>
			<node id="11"/>
			<node id="12"/>
			<node id="13"/>
			<node id="14"/>
			<node id="15"/>
			<node id="16"/>
			<node id="17"/>
			<node id="18"/>
			<node id="19"/>
			<node id="20"/>
<!-- ... 1744 like lines cut -->
		</NodeSet>
		<NodeSet name="PrescribedFluidDilatation1">
			<node id="1"/>
			<node id="2"/>
			<node id="3"/>
			<node id="4"/>
			<node id="5"/>
			<node id="6"/>
			<node id="7"/>
			<node id="8"/>
			<node id="9"/>
			<node id="10"/>
			<node id="11"/>
			<node id="12"/>
			<node id="13"/>
			<node id="14"/>
			<node id="15"/>
			<node id="16"/>
			<node id="17"/>
			<node id="18"/>
			<node id="19"/>
			<node id="20"/>
<!-- ... 22 like lines cut -->
		</NodeSet>
	</Geometry>
	<Boundary>
		<fix bc="wx,wy,wz" node_set="FixedFluidVelocity1"/>
		<fix bc="ef" node_set="FixedFluidDilatation1"/>
		<fix bc="wy" node_set="FixedFluidVelocity2"/>
		<fix bc="wz" node_set="FixedFluidVelocity3"/>
		<prescribe bc="ef" node_set="PrescribedFluidDilatation1">
			<scale lc="1">-1e-006</scale>
			<relative>0</relative>
		</prescribe>
	</Boundary>
	<LoadData>
		<loadcurve id="1" type="linear">
			<point>0,0</point>
			<point>1,1</point>
		</loadcurve>
	</LoadData>
	<Output>
		<plotfile type="febio">
			<var type="fluid pressure"/>
			<var type="fluid acceleration"/>
			<var type="fluid density"/>
			<var type="fluid dilatation"/>
			<var type="fluid mass flow rate"/>
			<var type="fluid rate of deformation"/>
			<var type="fluid stress"/>
			<var type="fluid displacement"/>
			<var type="fluid volume ratio"/>
			<var type="fluid vorticity"/>
			<var type="nodal fluid displacement"/>
		</plotfile>
	</Output>
</febio_spec>
