<?xml version="1.0" encoding="ISO-8859-1"?>
<febio_spec version="2.5">
	<Module type="fluid"/>
	<Control>
		<time_steps>10</time_steps>
		<step_size>0.1</step_size>
		<max_refs>5</max_refs>
		<max_ups>50</max_ups>
		<diverge_reform>0</diverge_reform>
		<reform_each_time_step>0</reform_each_time_step>
		<vtol>0.001</vtol>
		<ftol>0.001</ftol>
		<etol>0.01</etol>
		<rtol>0.001</rtol>
		<lstol>0.9</lstol>
		<min_residual>0</min_residual>
		<rhoi>-1</rhoi>
		<qnmethod>1</qnmethod>
		<time_stepper>
			<dtmin>0.01</dtmin>
			<dtmax>0.1</dtmax>
			<max_retries>10</max_retries>
			<opt_iter>50</opt_iter>
		</time_stepper>
		<analysis type="steady-state"/>
		<symmetric_stiffness>0</symmetric_stiffness>
		<equation_scheme>1</equation_scheme>
	</Control>
	<Globals>
		<Constants>
			<T>0</T>
			<R>0</R>
			<Fc>0</Fc>
		</Constants>
	</Globals>
	<Material>
		<material id="1" name="Material1" type="fluid">
			<density>1</density>
			<k>1e+009</k>
			<viscous type="Newtonian fluid">
				<mu>1</mu>
				<kappa>0</kappa>
			</viscous>
		</material>
	</Material>
	<Geometry>
		<Nodes name="Object01">
			<node id="1"> 0.0000000e+000, 0.0000000e+000, 0.0000000e+000</node>
			<node id="2"> 7.8024181e-002, 0.0000000e+000, 0.0000000e+000</node>
			<node id="3"> 7.7917251e-002, 4.0834700e-003, 0.0000000e+000</node>
			<node id="4"> 1.4434473e-001, 0.0000000e+000, 0.0000000e+000</node>
			<node id="5"> 1.4414691e-001, 7.5544196e-003, 0.0000000e+000</node>
			<node id="6"> 2.0071720e-001, 0.0000000e+000, 0.0000000e+000</node>
			<node id="7"> 2.0044213e-001, 1.0504727e-002, 0.0000000e+000</node>
			<node id="8"> 2.4863380e-001, 0.0000000e+000, 0.0000000e+000</node>
			<node id="9"> 2.4829306e-001, 1.3012488e-002, 0.0000000e+000</node>
			<node id="10"> 2.8936291e-001, 0.0000000e+000, 0.0000000e+000</node>
			<node id="11"> 2.8896635e-001, 1.5144085e-002, 0.0000000e+000</node>
			<node id="12"> 3.2398266e-001, 0.0000000e+000, 0.0000000e+000</node>
			<node id="13"> 3.2353865e-001, 1.6955942e-002, 0.0000000e+000</node>
			<node id="14"> 3.5340944e-001, 0.0000000e+000, 0.0000000e+000</node>
			<node id="15"> 3.5292510e-001, 1.8496021e-002, 0.0000000e+000</node>
			<node id="16"> 3.7842220e-001, 0.0000000e+000, 0.0000000e+000</node>
			<node id="17"> 3.7790359e-001, 1.9805088e-002, 0.0000000e+000</node>
			<node id="18"> 3.9968305e-001, 0.0000000e+000, 0.0000000e+000</node>
			<node id="19"> 3.9913530e-001, 2.0917795e-002, 0.0000000e+000</node>
			<node id="20"> 4.1775478e-001, 0.0000000e+000, 0.0000000e+000</node>
<!-- ... 841 like lines cut -->
		</Nodes>
		<Elements type="penta6" mat="1" name="Part1">
			<elem id="1">     1,     2,     3,    42,    43,    44</elem>
			<elem id="2">    42,    43,    44,    83,    84,    85</elem>
			<elem id="3">    83,    84,    85,   124,   125,   126</elem>
			<elem id="4">   124,   125,   126,   165,   166,   167</elem>
			<elem id="5">   165,   166,   167,   206,   207,   208</elem>
			<elem id="6">   206,   207,   208,   247,   248,   249</elem>
			<elem id="7">   247,   248,   249,   288,   289,   290</elem>
			<elem id="8">   288,   289,   290,   329,   330,   331</elem>
			<elem id="9">   329,   330,   331,   370,   371,   372</elem>
			<elem id="10">   370,   371,   372,   411,   412,   413</elem>
			<elem id="11">   411,   412,   413,   452,   453,   454</elem>
			<elem id="12">   452,   453,   454,   493,   494,   495</elem>
			<elem id="13">   493,   494,   495,   534,   535,   536</elem>
			<elem id="14">   534,   535,   536,   575,   576,   577</elem>
			<elem id="15">   575,   576,   577,   616,   617,   618</elem>
			<elem id="16">   616,   617,   618,   657,   658,   659</elem>
			<elem id="17">   657,   658,   659,   698,   699,   700</elem>
			<elem id="18">   698,   699,   700,   739,   740,   741</elem>
			<elem id="19">   739,   740,   741,   780,   781,   782</elem>
			<elem id="20">   780,   781,   782,   821,   822,   823</elem>
		</Elements>
		<Elements type="hex8" mat="1" name="Part1__2">
			<elem id="21">     2,     4,     5,     3,    43,    45,    46,    44</elem>
			<elem id="22">     4,     6,     7,     5,    45,    47,    48,    46</elem>
			<elem id="23">     6,     8,     9,     7,    47,    49,    50,    48</elem>
			<elem id="24">     8,    10,    11,     9,    49,    51,    52,    50</elem>
			<elem id="25">    10,    12,    13,    11,    51,    53,    54,    52</elem>
			<elem id="26">    12,    14,    15,    13,    53,    55,    56,    54</elem>
			<elem id="27">    14,    16,    17,    15,    55,    57,    58,    56</elem>
			<elem id="28">    16,    18,    19,    17,    57,    59,    60,    58</elem>
			<elem id="29">    18,    20,    21,    19,    59,    61,    62,    60</elem>
			<elem id="30">    20,    22,    23,    21,    61,    63,    64,    62</elem>
			<elem id="31">    22,    24,    25,    23,    63,    65,    66,    64</elem>
			<elem id="32">    24,    26,    27,    25,    65,    67,    68,    66</elem>
			<elem id="33">    26,    28,    29,    27,    67,    69,    70,    68</elem>
			<elem id="34">    28,    30,    31,    29,    69,    71,    72,    70</elem>
			<elem id="35">    30,    32,    33,    31,    71,    73,    74,    72</elem>
			<elem id="36">    32,    34,    35,    33,    73,    75,    76,    74</elem>
			<elem id="37">    34,    36,    37,    35,    75,    77,    78,    76</elem>
			<elem id="38">    36,    38,    39,    37,    77,    79,    80,    78</elem>
			<elem id="39">    38,    40,    41,    39,    79,    81,    82,    80</elem>
			<elem id="40">    43,    45,    46,    44,    84,    86,    87,    85</elem>
<!-- ... 360 like lines cut -->
		</Elements>
		<NodeSet name="FixedFluidVelocity1">
			<node id="40"/>
			<node id="41"/>
			<node id="81"/>
			<node id="82"/>
			<node id="122"/>
			<node id="123"/>
			<node id="163"/>
			<node id="164"/>
			<node id="204"/>
			<node id="205"/>
			<node id="245"/>
			<node id="246"/>
			<node id="286"/>
			<node id="287"/>
			<node id="327"/>
			<node id="328"/>
			<node id="368"/>
			<node id="369"/>
			<node id="409"/>
			<node id="410"/>
<!-- ... 22 like lines cut -->
		</NodeSet>
		<NodeSet name="FixedFluidDilatation1">
			<node id="821"/>
			<node id="822"/>
			<node id="823"/>
			<node id="824"/>
			<node id="825"/>
			<node id="826"/>
			<node id="827"/>
			<node id="828"/>
			<node id="829"/>
			<node id="830"/>
			<node id="831"/>
			<node id="832"/>
			<node id="833"/>
			<node id="834"/>
			<node id="835"/>
			<node id="836"/>
			<node id="837"/>
			<node id="838"/>
			<node id="839"/>
			<node id="840"/>
<!-- ... 21 like lines cut -->
		</NodeSet>
		<NodeSet name="PrescribedFluidDilatation1">
			<node id="1"/>
			<node id="2"/>
			<node id="3"/>
			<node id="4"/>
			<node id="5"/>
			<node id="6"/>
			<node id="7"/>
			<node id="8"/>
			<node id="9"/>
			<node id="10"/>
			<node id="11"/>
			<node id="12"/>
			<node id="13"/>
			<node id="14"/>
			<node id="15"/>
			<node id="16"/>
			<node id="17"/>
			<node id="18"/>
			<node id="19"/>
			<node id="20"/>
<!-- ... 21 like lines cut -->
		</NodeSet>
		<Surface name="NormalFlowConstraint1">
			<tri3 id="1">     1,     3,     2</tri3>
			<quad4 id="2">     3,     5,     4,     2</quad4>
			<quad4 id="3">     5,     7,     6,     4</quad4>
			<quad4 id="4">     7,     9,     8,     6</quad4>
			<quad4 id="5">     9,    11,    10,     8</quad4>
			<quad4 id="6">    11,    13,    12,    10</quad4>
			<quad4 id="7">    13,    15,    14,    12</quad4>
			<quad4 id="8">    15,    17,    16,    14</quad4>
			<quad4 id="9">    17,    19,    18,    16</quad4>
			<quad4 id="10">    19,    21,    20,    18</quad4>
			<quad4 id="11">    21,    23,    22,    20</quad4>
			<quad4 id="12">    23,    25,    24,    22</quad4>
			<quad4 id="13">    25,    27,    26,    24</quad4>
			<quad4 id="14">    27,    29,    28,    26</quad4>
			<quad4 id="15">    29,    31,    30,    28</quad4>
			<quad4 id="16">    31,    33,    32,    30</quad4>
			<quad4 id="17">    33,    35,    34,    32</quad4>
			<quad4 id="18">    35,    37,    36,    34</quad4>
			<quad4 id="19">    37,    39,    38,    36</quad4>
			<quad4 id="20">    39,    41,    40,    38</quad4>
		</Surface>
		<Surface name="NormalFlowConstraint2">
			<tri3 id="1">   821,   822,   823</tri3>
			<quad4 id="2">   822,   824,   825,   823</quad4>
			<quad4 id="3">   824,   826,   827,   825</quad4>
			<quad4 id="4">   826,   828,   829,   827</quad4>
			<quad4 id="5">   828,   830,   831,   829</quad4>
			<quad4 id="6">   830,   832,   833,   831</quad4>
			<quad4 id="7">   832,   834,   835,   833</quad4>
			<quad4 id="8">   834,   836,   837,   835</quad4>
			<quad4 id="9">   836,   838,   839,   837</quad4>
			<quad4 id="10">   838,   840,   841,   839</quad4>
			<quad4 id="11">   840,   842,   843,   841</quad4>
			<quad4 id="12">   842,   844,   845,   843</quad4>
			<quad4 id="13">   844,   846,   847,   845</quad4>
			<quad4 id="14">   846,   848,   849,   847</quad4>
			<quad4 id="15">   848,   850,   851,   849</quad4>
			<quad4 id="16">   850,   852,   853,   851</quad4>
			<quad4 id="17">   852,   854,   855,   853</quad4>
			<quad4 id="18">   854,   856,   857,   855</quad4>
			<quad4 id="19">   856,   858,   859,   857</quad4>
			<quad4 id="20">   858,   860,   861,   859</quad4>
		</Surface>
	</Geometry>
	<Boundary>
		<fix bc="wx,wy,wz" node_set="FixedFluidVelocity1"/>
		<fix bc="ef" node_set="FixedFluidDilatation1"/>
		<prescribe bc="ef" node_set="PrescribedFluidDilatation1">
			<scale lc="1">-1e-006</scale>
			<relative>0</relative>
		</prescribe>
	</Boundary>
	<Contact>
	</Contact>
	<Constraints>
		<constraint type="normal fluid flow" name="NormalFlowConstraint1" surface="NormalFlowConstraint1">
			<laugon>0</laugon>
			<tol>0.2</tol>
			<penalty>1e+006</penalty>
			<minaug>0</minaug>
			<maxaug>0</maxaug>
			<rhs>0</rhs>
		</constraint>
		<constraint type="normal fluid flow" name="NormalFlowConstraint2" surface="NormalFlowConstraint2">
			<laugon>0</laugon>
			<tol>0.2</tol>
			<penalty>1e+006</penalty>
			<minaug>0</minaug>
			<maxaug>0</maxaug>
			<rhs>0</rhs>
		</constraint>
	</Constraints>
	<LoadData>
		<loadcurve id="1" type="smooth">
			<point>0,0</point>
			<point>1,1</point>
		</loadcurve>
	</LoadData>
	<Output>
		<plotfile type="febio">
			<var type="fluid pressure"/>
			<var type="fluid acceleration"/>
			<var type="fluid dilatation"/>
			<var type="fluid rate of deformation"/>
			<var type="fluid stress"/>
			<var type="fluid velocity"/>
			<var type="fluid volume ratio"/>
			<var type="fluid vorticity"/>
			<var type="nodal fluid velocity"/>
		</plotfile>
	</Output>
</febio_spec>
