<?xml version="1.0" encoding="ISO-8859-1"?>
<febio_spec version="2.5">
	<Module type="fluid"/>
	<Control>
		<time_steps>1</time_steps>
		<step_size>1</step_size>
		<max_refs>5</max_refs>
		<max_ups>10</max_ups>
		<diverge_reform>1</diverge_reform>
		<reform_each_time_step>1</reform_each_time_step>
		<vtol>0.001</vtol>
		<ftol>0.001</ftol>
		<etol>0.01</etol>
		<rtol>0.001</rtol>
		<lstol>0.9</lstol>
		<min_residual>0</min_residual>
		<rhoi>-1</rhoi>
		<qnmethod>1</qnmethod>
		<time_stepper>
			<dtmin>0.01</dtmin>
			<dtmax>1</dtmax>
			<max_retries>50</max_retries>
			<opt_iter>10</opt_iter>
		</time_stepper>
		<analysis type="steady-state"/>
		<symmetric_stiffness>0</symmetric_stiffness>
		<equation_scheme>1</equation_scheme>
	</Control>
	<Globals>
		<Constants>
			<T>0</T>
			<R>0</R>
			<Fc>0</Fc>
		</Constants>
	</Globals>
	<Material>
		<material id="1" name="Material1" type="fluid">
			<density>1</density>
			<k>1e+009</k>
			<viscous type="Newtonian fluid">
				<mu>1</mu>
				<kappa>0</kappa>
			</viscous>
		</material>
	</Material>
	<Geometry>
		<Nodes name="Object01">
			<node id="1">-5.0000000e+000,-5.0000000e-001, 0.0000000e+000</node>
			<node id="2">-5.0000000e+000,-5.0000000e-001, 1.0000000e-001</node>
			<node id="3">-5.0000000e+000,-4.8826828e-001, 0.0000000e+000</node>
			<node id="4">-5.0000000e+000,-4.8826828e-001, 1.0000000e-001</node>
			<node id="5">-5.0000000e+000,-4.7301704e-001, 0.0000000e+000</node>
			<node id="6">-5.0000000e+000,-4.7301704e-001, 1.0000000e-001</node>
			<node id="7">-5.0000000e+000,-4.5319044e-001, 0.0000000e+000</node>
			<node id="8">-5.0000000e+000,-4.5319044e-001, 1.0000000e-001</node>
			<node id="9">-5.0000000e+000,-4.2741585e-001, 0.0000000e+000</node>
			<node id="10">-5.0000000e+000,-4.2741585e-001, 1.0000000e-001</node>
			<node id="11">-5.0000000e+000,-3.9390888e-001, 0.0000000e+000</node>
			<node id="12">-5.0000000e+000,-3.9390888e-001, 1.0000000e-001</node>
			<node id="13">-5.0000000e+000,-3.5034983e-001, 0.0000000e+000</node>
			<node id="14">-5.0000000e+000,-3.5034983e-001, 1.0000000e-001</node>
			<node id="15">-5.0000000e+000,-2.9372306e-001, 0.0000000e+000</node>
			<node id="16">-5.0000000e+000,-2.9372306e-001, 1.0000000e-001</node>
			<node id="17">-5.0000000e+000,-2.2010826e-001, 0.0000000e+000</node>
			<node id="18">-5.0000000e+000,-2.2010826e-001, 1.0000000e-001</node>
			<node id="19">-5.0000000e+000,-1.2440902e-001, 0.0000000e+000</node>
			<node id="20">-5.0000000e+000,-1.2440902e-001, 1.0000000e-001</node>
<!-- ... 1702 like lines cut -->
		</Nodes>
		<Elements type="hex8" mat="1" name="Part1">
			<elem id="1">     1,    43,    45,     3,     2,    44,    46,     4</elem>
			<elem id="2">     3,    45,    47,     5,     4,    46,    48,     6</elem>
			<elem id="3">     5,    47,    49,     7,     6,    48,    50,     8</elem>
			<elem id="4">     7,    49,    51,     9,     8,    50,    52,    10</elem>
			<elem id="5">     9,    51,    53,    11,    10,    52,    54,    12</elem>
			<elem id="6">    11,    53,    55,    13,    12,    54,    56,    14</elem>
			<elem id="7">    13,    55,    57,    15,    14,    56,    58,    16</elem>
			<elem id="8">    15,    57,    59,    17,    16,    58,    60,    18</elem>
			<elem id="9">    17,    59,    61,    19,    18,    60,    62,    20</elem>
			<elem id="10">    19,    61,    63,    21,    20,    62,    64,    22</elem>
			<elem id="11">    21,    63,    65,    23,    22,    64,    66,    24</elem>
			<elem id="12">    23,    65,    67,    25,    24,    66,    68,    26</elem>
			<elem id="13">    25,    67,    69,    27,    26,    68,    70,    28</elem>
			<elem id="14">    27,    69,    71,    29,    28,    70,    72,    30</elem>
			<elem id="15">    29,    71,    73,    31,    30,    72,    74,    32</elem>
			<elem id="16">    31,    73,    75,    33,    32,    74,    76,    34</elem>
			<elem id="17">    33,    75,    77,    35,    34,    76,    78,    36</elem>
			<elem id="18">    35,    77,    79,    37,    36,    78,    80,    38</elem>
			<elem id="19">    37,    79,    81,    39,    38,    80,    82,    40</elem>
			<elem id="20">    39,    81,    83,    41,    40,    82,    84,    42</elem>
<!-- ... 780 like lines cut -->
		</Elements>
		<NodeSet name="FixedFluidVelocity1">
			<node id="1"/>
			<node id="2"/>
			<node id="3"/>
			<node id="4"/>
			<node id="5"/>
			<node id="6"/>
			<node id="7"/>
			<node id="8"/>
			<node id="9"/>
			<node id="10"/>
			<node id="11"/>
			<node id="12"/>
			<node id="13"/>
			<node id="14"/>
			<node id="15"/>
			<node id="16"/>
			<node id="17"/>
			<node id="18"/>
			<node id="19"/>
			<node id="20"/>
<!-- ... 3424 like lines cut -->
		</NodeSet>
		<NodeSet name="FixedFluidVelocity2">
			<node id="1"/>
			<node id="2"/>
			<node id="41"/>
			<node id="42"/>
			<node id="43"/>
			<node id="44"/>
			<node id="83"/>
			<node id="84"/>
			<node id="85"/>
			<node id="86"/>
			<node id="125"/>
			<node id="126"/>
			<node id="127"/>
			<node id="128"/>
			<node id="167"/>
			<node id="168"/>
			<node id="169"/>
			<node id="170"/>
			<node id="209"/>
			<node id="210"/>
<!-- ... 308 like lines cut -->
		</NodeSet>
		<NodeSet name="FixedFluidVelocity3">
			<node id="1681"/>
			<node id="1682"/>
			<node id="1683"/>
			<node id="1684"/>
			<node id="1685"/>
			<node id="1686"/>
			<node id="1687"/>
			<node id="1688"/>
			<node id="1689"/>
			<node id="1690"/>
			<node id="1691"/>
			<node id="1692"/>
			<node id="1693"/>
			<node id="1694"/>
			<node id="1695"/>
			<node id="1696"/>
			<node id="1697"/>
			<node id="1698"/>
			<node id="1699"/>
			<node id="1700"/>
<!-- ... 22 like lines cut -->
		</NodeSet>
		<NodeSet name="FixedFluidDilatation1">
			<node id="1681"/>
			<node id="1682"/>
			<node id="1683"/>
			<node id="1684"/>
			<node id="1685"/>
			<node id="1686"/>
			<node id="1687"/>
			<node id="1688"/>
			<node id="1689"/>
			<node id="1690"/>
			<node id="1691"/>
			<node id="1692"/>
			<node id="1693"/>
			<node id="1694"/>
			<node id="1695"/>
			<node id="1696"/>
			<node id="1697"/>
			<node id="1698"/>
			<node id="1699"/>
			<node id="1700"/>
<!-- ... 22 like lines cut -->
		</NodeSet>
		<NodeSet name="FixedFluidDilatation2">
			<node id="1"/>
			<node id="2"/>
			<node id="41"/>
			<node id="42"/>
			<node id="1"/>
			<node id="2"/>
			<node id="41"/>
			<node id="42"/>
		</NodeSet>
		<Surface name="FluidNormalVelocity1">
			<quad4 id="1">    41,    39,    40,    42</quad4>
			<quad4 id="2">    39,    37,    38,    40</quad4>
			<quad4 id="3">    37,    35,    36,    38</quad4>
			<quad4 id="4">    35,    33,    34,    36</quad4>
			<quad4 id="5">    33,    31,    32,    34</quad4>
			<quad4 id="6">    31,    29,    30,    32</quad4>
			<quad4 id="7">    29,    27,    28,    30</quad4>
			<quad4 id="8">    27,    25,    26,    28</quad4>
			<quad4 id="9">    25,    23,    24,    26</quad4>
			<quad4 id="10">    23,    21,    22,    24</quad4>
			<quad4 id="11">    21,    19,    20,    22</quad4>
			<quad4 id="12">    19,    17,    18,    20</quad4>
			<quad4 id="13">    17,    15,    16,    18</quad4>
			<quad4 id="14">    15,    13,    14,    16</quad4>
			<quad4 id="15">    13,    11,    12,    14</quad4>
			<quad4 id="16">    11,     9,    10,    12</quad4>
			<quad4 id="17">     9,     7,     8,    10</quad4>
			<quad4 id="18">     7,     5,     6,     8</quad4>
			<quad4 id="19">     5,     3,     4,     6</quad4>
			<quad4 id="20">     3,     1,     2,     4</quad4>
		</Surface>
	</Geometry>
	<Boundary>
		<fix bc="wz" node_set="FixedFluidVelocity1"/>
		<fix bc="wx,wy" node_set="FixedFluidVelocity2"/>
		<fix bc="wy" node_set="FixedFluidVelocity3"/>
		<fix bc="ef" node_set="FixedFluidDilatation1"/>
		<fix bc="ef" node_set="FixedFluidDilatation2"/>
	</Boundary>
	<Loads>
		<surface_load type="fluid normal velocity" surface="FluidNormalVelocity1">
			<velocity lc="1">-1</velocity>
			<prescribe_nodal_velocities>1</prescribe_nodal_velocities>
			<parabolic>0</parabolic>
		</surface_load>
	</Loads>
	<LoadData>
		<loadcurve id="1" type="smooth">
			<point>0,0</point>
			<point>1,1</point>
		</loadcurve>
	</LoadData>
	<Output>
		<plotfile type="febio">
			<var type="fluid pressure"/>
			<var type="fluid acceleration"/>
			<var type="fluid density"/>
			<var type="fluid dilatation"/>
			<var type="fluid rate of deformation"/>
			<var type="fluid stress"/>
			<var type="fluid velocity"/>
			<var type="fluid volume ratio"/>
			<var type="fluid vorticity"/>
			<var type="nodal fluid velocity"/>
		</plotfile>
	</Output>
</febio_spec>
