<?xml version="1.0" encoding="ISO-8859-1"?>
<febio_spec version="2.5">
	<Module type="fluid"/>
	<Control>
		<time_steps>1000</time_steps>
		<step_size>0.2</step_size>
		<max_refs>2</max_refs>
		<max_ups>50</max_ups>
		<diverge_reform>0</diverge_reform>
		<reform_each_time_step>0</reform_each_time_step>
		<vtol>0.001</vtol>
		<ftol>0.001</ftol>
		<etol>0.01</etol>
		<rtol>0.001</rtol>
		<lstol>0.9</lstol>
		<min_residual>5e-016</min_residual>
		<rhoi>0</rhoi>
		<qnmethod>2</qnmethod>
		<analysis type="dynamic"/>
		<symmetric_stiffness>0</symmetric_stiffness>
	</Control>
	<Globals>
		<Constants>
			<T>0</T>
			<R>0</R>
			<Fc>0</Fc>
		</Constants>
	</Globals>
	<Material>
		<material id="1" name="Material1" type="fluid">
			<density>1</density>
			<k>1e+009</k>
			<viscous type="Newtonian fluid">
				<mu>0.01</mu>
				<kappa>0</kappa>
			</viscous>
		</material>
	</Material>
	<Geometry>
		<Nodes name="fl15">
			<node id="1"> 5.0000000e-001, 0.0000000e+000, 0.0000000e+000</node>
			<node id="2"> 5.6637000e-001, 0.0000000e+000, 0.0000000e+000</node>
			<node id="3"> 6.5265100e-001, 0.0000000e+000, 0.0000000e+000</node>
			<node id="4"> 7.6481630e-001, 0.0000000e+000, 0.0000000e+000</node>
			<node id="5"> 9.1063119e-001, 0.0000000e+000, 0.0000000e+000</node>
			<node id="6"> 1.1001905e+000, 0.0000000e+000, 0.0000000e+000</node>
			<node id="7"> 1.3466177e+000, 0.0000000e+000, 0.0000000e+000</node>
			<node id="8"> 1.6669730e+000, 0.0000000e+000, 0.0000000e+000</node>
			<node id="9"> 2.0834349e+000, 0.0000000e+000, 0.0000000e+000</node>
			<node id="10"> 2.6248354e+000, 0.0000000e+000, 0.0000000e+000</node>
			<node id="11"> 3.3286560e+000, 0.0000000e+000, 0.0000000e+000</node>
			<node id="12"> 4.2436228e+000, 0.0000000e+000, 0.0000000e+000</node>
			<node id="13"> 5.4330797e+000, 0.0000000e+000, 0.0000000e+000</node>
			<node id="14"> 6.9793736e+000, 0.0000000e+000, 0.0000000e+000</node>
			<node id="15"> 8.9895556e+000, 0.0000000e+000, 0.0000000e+000</node>
			<node id="16"> 1.1602792e+001, 0.0000000e+000, 0.0000000e+000</node>
			<node id="17"> 1.5000000e+001, 0.0000000e+000, 0.0000000e+000</node>
			<node id="18"> 4.9759236e-001, 4.9008569e-002, 0.0000000e+000</node>
			<node id="19"> 5.6364277e-001, 5.5513967e-002, 0.0000000e+000</node>
			<node id="20"> 6.4950831e-001, 6.3970983e-002, 0.0000000e+000</node>
<!-- ... 2156 like lines cut -->
		</Nodes>
		<Elements type="hex8" mat="1" name="Part1">
			<elem id="1">     1,     2,    19,    18,  1089,  1090,  1107,  1106</elem>
			<elem id="2">     2,     3,    20,    19,  1090,  1091,  1108,  1107</elem>
			<elem id="3">     3,     4,    21,    20,  1091,  1092,  1109,  1108</elem>
			<elem id="4">     4,     5,    22,    21,  1092,  1093,  1110,  1109</elem>
			<elem id="5">     5,     6,    23,    22,  1093,  1094,  1111,  1110</elem>
			<elem id="6">     6,     7,    24,    23,  1094,  1095,  1112,  1111</elem>
			<elem id="7">     7,     8,    25,    24,  1095,  1096,  1113,  1112</elem>
			<elem id="8">     8,     9,    26,    25,  1096,  1097,  1114,  1113</elem>
			<elem id="9">     9,    10,    27,    26,  1097,  1098,  1115,  1114</elem>
			<elem id="10">    10,    11,    28,    27,  1098,  1099,  1116,  1115</elem>
			<elem id="11">    11,    12,    29,    28,  1099,  1100,  1117,  1116</elem>
			<elem id="12">    12,    13,    30,    29,  1100,  1101,  1118,  1117</elem>
			<elem id="13">    13,    14,    31,    30,  1101,  1102,  1119,  1118</elem>
			<elem id="14">    14,    15,    32,    31,  1102,  1103,  1120,  1119</elem>
			<elem id="15">    15,    16,    33,    32,  1103,  1104,  1121,  1120</elem>
			<elem id="16">    16,    17,    34,    33,  1104,  1105,  1122,  1121</elem>
			<elem id="17">    18,    19,    36,    35,  1106,  1107,  1124,  1123</elem>
			<elem id="18">    19,    20,    37,    36,  1107,  1108,  1125,  1124</elem>
			<elem id="19">    20,    21,    38,    37,  1108,  1109,  1126,  1125</elem>
			<elem id="20">    21,    22,    39,    38,  1109,  1110,  1127,  1126</elem>
<!-- ... 1004 like lines cut -->
		</Elements>
		<NodeSet name="FixedFluidVelocity01">
			<node id="1"/>
			<node id="2"/>
			<node id="3"/>
			<node id="4"/>
			<node id="5"/>
			<node id="6"/>
			<node id="7"/>
			<node id="8"/>
			<node id="9"/>
			<node id="10"/>
			<node id="11"/>
			<node id="12"/>
			<node id="13"/>
			<node id="14"/>
			<node id="15"/>
			<node id="16"/>
			<node id="17"/>
			<node id="18"/>
			<node id="19"/>
			<node id="20"/>
<!-- ... 17388 like lines cut -->
		</NodeSet>
		<NodeSet name="FixedFluidVelocity02">
			<node id="1"/>
			<node id="18"/>
			<node id="35"/>
			<node id="52"/>
			<node id="69"/>
			<node id="86"/>
			<node id="103"/>
			<node id="120"/>
			<node id="137"/>
			<node id="154"/>
			<node id="171"/>
			<node id="188"/>
			<node id="205"/>
			<node id="222"/>
			<node id="239"/>
			<node id="256"/>
			<node id="273"/>
			<node id="290"/>
			<node id="307"/>
			<node id="324"/>
<!-- ... 492 like lines cut -->
		</NodeSet>
		<NodeSet name="FixedFluidDilatation01">
			<node id="17"/>
			<node id="34"/>
			<node id="51"/>
			<node id="68"/>
			<node id="85"/>
			<node id="102"/>
			<node id="119"/>
			<node id="136"/>
			<node id="153"/>
			<node id="170"/>
			<node id="187"/>
			<node id="204"/>
			<node id="221"/>
			<node id="238"/>
			<node id="255"/>
			<node id="272"/>
			<node id="289"/>
			<node id="833"/>
			<node id="850"/>
			<node id="867"/>
<!-- ... 112 like lines cut -->
		</NodeSet>
		<Surface name="FluidVelocity1">
			<quad4 id="1">   289,   306,  1394,  1377</quad4>
			<quad4 id="2">   306,   323,  1411,  1394</quad4>
			<quad4 id="3">   323,   340,  1428,  1411</quad4>
			<quad4 id="4">   340,   357,  1445,  1428</quad4>
			<quad4 id="5">   357,   374,  1462,  1445</quad4>
			<quad4 id="6">   374,   391,  1479,  1462</quad4>
			<quad4 id="7">   391,   408,  1496,  1479</quad4>
			<quad4 id="8">   408,   425,  1513,  1496</quad4>
			<quad4 id="9">   425,   442,  1530,  1513</quad4>
			<quad4 id="10">   442,   459,  1547,  1530</quad4>
			<quad4 id="11">   459,   476,  1564,  1547</quad4>
			<quad4 id="12">   476,   493,  1581,  1564</quad4>
			<quad4 id="13">   493,   510,  1598,  1581</quad4>
			<quad4 id="14">   510,   527,  1615,  1598</quad4>
			<quad4 id="15">   527,   544,  1632,  1615</quad4>
			<quad4 id="16">   544,   561,  1649,  1632</quad4>
			<quad4 id="17">   561,   578,  1666,  1649</quad4>
			<quad4 id="18">   578,   595,  1683,  1666</quad4>
			<quad4 id="19">   595,   612,  1700,  1683</quad4>
			<quad4 id="20">   612,   629,  1717,  1700</quad4>
<!-- ... 12 like lines cut -->
		</Surface>
		<Surface name="FluidTractionLoad1">
			<quad4 id="1">   289,   306,  1394,  1377</quad4>
			<quad4 id="2">   306,   323,  1411,  1394</quad4>
			<quad4 id="3">   323,   340,  1428,  1411</quad4>
			<quad4 id="4">   340,   357,  1445,  1428</quad4>
			<quad4 id="5">   357,   374,  1462,  1445</quad4>
			<quad4 id="6">   374,   391,  1479,  1462</quad4>
			<quad4 id="7">   391,   408,  1496,  1479</quad4>
			<quad4 id="8">   408,   425,  1513,  1496</quad4>
			<quad4 id="9">   425,   442,  1530,  1513</quad4>
			<quad4 id="10">   442,   459,  1547,  1530</quad4>
			<quad4 id="11">   459,   476,  1564,  1547</quad4>
			<quad4 id="12">   476,   493,  1581,  1564</quad4>
			<quad4 id="13">   493,   510,  1598,  1581</quad4>
			<quad4 id="14">   510,   527,  1615,  1598</quad4>
			<quad4 id="15">   527,   544,  1632,  1615</quad4>
			<quad4 id="16">   544,   561,  1649,  1632</quad4>
			<quad4 id="17">   561,   578,  1666,  1649</quad4>
			<quad4 id="18">   578,   595,  1683,  1666</quad4>
			<quad4 id="19">   595,   612,  1700,  1683</quad4>
			<quad4 id="20">   612,   629,  1717,  1700</quad4>
<!-- ... 12 like lines cut -->
		</Surface>
	</Geometry>
	<Boundary>
		<fix bc="wz" node_set="FixedFluidVelocity01"/>
		<fix bc="wx,wy" node_set="FixedFluidVelocity02"/>
		<fix bc="ef" node_set="FixedFluidDilatation01"/>
	</Boundary>
	<Loads>
		<surface_load type="fluid viscous traction" surface="FluidTractionLoad1">
			<scale lc="2">1</scale>
			<traction>0,1,0</traction>
		</surface_load>
		<surface_load type="fluid velocity" surface="FluidVelocity1">
			<scale lc="1">1</scale>
			<velocity>1,0,0</velocity>
		</surface_load>
	</Loads>
	<LoadData>
		<loadcurve id="1" type="smooth">
			<point>0,0</point>
			<point>1,1</point>
		</loadcurve>
		<loadcurve id="2" type="linear">
			<point>0,0</point>
			<point>0.2,1</point>
			<point>0.20001,0</point>
		</loadcurve>
	</LoadData>
	<Output>
		<plotfile type="febio">
			<var type="velocity"/>
			<var type="fluid pressure"/>
			<var type="fluid acceleration"/>
			<var type="fluid dilatation"/>
			<var type="fluid rate of deformation"/>
			<var type="fluid stress"/>
			<var type="fluid surface force"/>
			<var type="fluid velocity"/>
			<var type="fluid vorticity"/>
			<var type="nodal fluid velocity"/>
		</plotfile>
	</Output>
</febio_spec>
