<?xml version="1.0" encoding="ISO-8859-1"?>
<febio_spec version="2.5">
	<Module type="fluid"/>
	<Control>
		<time_steps>100</time_steps>
		<step_size>1</step_size>
		<max_refs>5</max_refs>
		<max_ups>50</max_ups>
		<diverge_reform>0</diverge_reform>
		<reform_each_time_step>0</reform_each_time_step>
		<vtol>0.001</vtol>
		<ftol>0.001</ftol>
		<etol>0.01</etol>
		<rtol>0.001</rtol>
		<lstol>0.9</lstol>
		<min_residual>0</min_residual>
		<rhoi>0</rhoi>
		<qnmethod>1</qnmethod>
		<time_stepper>
			<dtmin>0.1</dtmin>
			<dtmax>1</dtmax>
			<max_retries>50</max_retries>
			<opt_iter>50</opt_iter>
		</time_stepper>
		<analysis type="dynamic"/>
	</Control>
	<Globals>
		<Constants>
			<T>0</T>
			<R>0</R>
			<Fc>0</Fc>
		</Constants>
	</Globals>
	<Material>
		<material id="1" name="Material1" type="fluid">
			<density>1</density>
			<k>1e+009</k>
			<viscous type="Newtonian fluid">
				<mu>0.02</mu>
				<kappa>0</kappa>
			</viscous>
		</material>
	</Material>
	<Geometry>
		<Nodes name="Object01">
			<node id="1">-1.5000000e+000,-5.0000000e-001, 0.0000000e+000</node>
			<node id="2">-1.5000000e+000,-5.0000000e-001, 1.0000000e-001</node>
			<node id="3">-1.5000000e+000,-4.0000000e-001, 0.0000000e+000</node>
			<node id="4">-1.5000000e+000,-4.0000000e-001, 1.0000000e-001</node>
			<node id="5">-1.5000000e+000,-3.0000000e-001, 0.0000000e+000</node>
			<node id="6">-1.5000000e+000,-3.0000000e-001, 1.0000000e-001</node>
			<node id="7">-1.5000000e+000,-2.0000000e-001, 0.0000000e+000</node>
			<node id="8">-1.5000000e+000,-2.0000000e-001, 1.0000000e-001</node>
			<node id="9">-1.5000000e+000,-1.0000000e-001, 0.0000000e+000</node>
			<node id="10">-1.5000000e+000,-1.0000000e-001, 1.0000000e-001</node>
			<node id="11">-1.5000000e+000,-2.7755576e-017, 0.0000000e+000</node>
			<node id="12">-1.5000000e+000,-2.7755576e-017, 1.0000000e-001</node>
			<node id="13">-1.5000000e+000, 1.0000000e-001, 0.0000000e+000</node>
			<node id="14">-1.5000000e+000, 1.0000000e-001, 1.0000000e-001</node>
			<node id="15">-1.5000000e+000, 2.0000000e-001, 0.0000000e+000</node>
			<node id="16">-1.5000000e+000, 2.0000000e-001, 1.0000000e-001</node>
			<node id="17">-1.5000000e+000, 3.0000000e-001, 0.0000000e+000</node>
			<node id="18">-1.5000000e+000, 3.0000000e-001, 1.0000000e-001</node>
			<node id="19">-1.5000000e+000, 4.0000000e-001, 0.0000000e+000</node>
			<node id="20">-1.5000000e+000, 4.0000000e-001, 1.0000000e-001</node>
<!-- ... 4026 like lines cut -->
		</Nodes>
		<Elements type="hex8" mat="1" name="Part2">
			<elem id="1">     1,    23,    25,     3,     2,    24,    26,     4</elem>
			<elem id="2">     3,    25,    27,     5,     4,    26,    28,     6</elem>
			<elem id="3">     5,    27,    29,     7,     6,    28,    30,     8</elem>
			<elem id="4">     7,    29,    31,     9,     8,    30,    32,    10</elem>
			<elem id="5">     9,    31,    33,    11,    10,    32,    34,    12</elem>
			<elem id="6">    11,    33,    35,    13,    12,    34,    36,    14</elem>
			<elem id="7">    13,    35,    37,    15,    14,    36,    38,    16</elem>
			<elem id="8">    15,    37,    39,    17,    16,    38,    40,    18</elem>
			<elem id="9">    17,    39,    41,    19,    18,    40,    42,    20</elem>
			<elem id="10">    23,    45,    47,    25,    24,    46,    48,    26</elem>
			<elem id="11">    25,    47,    49,    27,    26,    48,    50,    28</elem>
			<elem id="12">    27,    49,    51,    29,    28,    50,    52,    30</elem>
			<elem id="13">    29,    51,    53,    31,    30,    52,    54,    32</elem>
			<elem id="14">    31,    53,    55,    33,    32,    54,    56,    34</elem>
			<elem id="15">    33,    55,    57,    35,    34,    56,    58,    36</elem>
			<elem id="16">    35,    57,    59,    37,    36,    58,    60,    38</elem>
			<elem id="17">    37,    59,    61,    39,    38,    60,    62,    40</elem>
			<elem id="18">    39,    61,    63,    41,    40,    62,    64,    42</elem>
			<elem id="19">    45,    67,    69,    47,    46,    68,    70,    48</elem>
			<elem id="20">    47,    69,    71,    49,    48,    70,    72,    50</elem>
<!-- ... 756 like lines cut -->
		</Elements>
		<Elements type="penta6" mat="1" name="Part2__2">
			<elem id="777">   741,  3551,  3562,   742,  3555,  3566</elem>
			<elem id="778">   741,  3562,  3543,   742,  3566,  3547</elem>
			<elem id="779">   679,  3466,  4042,   680,  3470,  4046</elem>
			<elem id="780">   679,  4042,  3471,   680,  4046,  3479</elem>
		</Elements>
		<Elements type="hex8" mat="1" name="Part1">
			<elem id="781">   681,   703,   705,   661,   682,   704,   706,   662</elem>
			<elem id="782">   661,   705,   707,   663,   662,   706,   708,   664</elem>
			<elem id="783">   663,   707,   709,   665,   664,   708,   710,   666</elem>
			<elem id="784">   665,   709,   711,   667,   666,   710,   712,   668</elem>
			<elem id="785">   667,   711,   713,   669,   668,   712,   714,   670</elem>
			<elem id="786">   669,   713,   715,   671,   670,   714,   716,   672</elem>
			<elem id="787">   671,   715,   717,   673,   672,   716,   718,   674</elem>
			<elem id="788">   673,   717,   719,   675,   674,   718,   720,   676</elem>
			<elem id="789">   675,   719,   721,   677,   676,   720,   722,   678</elem>
			<elem id="790">   703,   745,   747,   705,   704,   746,   748,   706</elem>
			<elem id="791">   705,   747,   749,   707,   706,   748,   750,   708</elem>
			<elem id="792">   707,   749,   751,   709,   708,   750,   752,   710</elem>
			<elem id="793">   709,   751,   753,   711,   710,   752,   754,   712</elem>
			<elem id="794">   711,   753,   755,   713,   712,   754,   756,   714</elem>
			<elem id="795">   713,   755,   757,   715,   714,   756,   758,   716</elem>
			<elem id="796">   715,   757,   759,   717,   716,   758,   760,   718</elem>
			<elem id="797">   717,   759,   761,   719,   718,   760,   762,   720</elem>
			<elem id="798">   719,   761,   763,   721,   720,   762,   764,   722</elem>
			<elem id="799">   721,   763,   765,   723,   722,   764,   766,   724</elem>
			<elem id="800">   723,   765,   767,   725,   724,   766,   768,   726</elem>
<!-- ... 1110 like lines cut -->
		</Elements>
		<NodeSet name="FixedFluidVelocity1">
			<node id="1"/>
			<node id="2"/>
			<node id="3"/>
			<node id="4"/>
			<node id="5"/>
			<node id="6"/>
			<node id="7"/>
			<node id="8"/>
			<node id="9"/>
			<node id="10"/>
			<node id="11"/>
			<node id="12"/>
			<node id="13"/>
			<node id="14"/>
			<node id="15"/>
			<node id="16"/>
			<node id="17"/>
			<node id="18"/>
			<node id="19"/>
			<node id="20"/>
<!-- ... 16164 like lines cut -->
		</NodeSet>
		<NodeSet name="FixedFluidVelocity2">
			<node id="21"/>
			<node id="22"/>
			<node id="43"/>
			<node id="44"/>
			<node id="65"/>
			<node id="66"/>
			<node id="87"/>
			<node id="88"/>
			<node id="109"/>
			<node id="110"/>
			<node id="131"/>
			<node id="132"/>
			<node id="153"/>
			<node id="154"/>
			<node id="175"/>
			<node id="176"/>
			<node id="197"/>
			<node id="198"/>
			<node id="219"/>
			<node id="220"/>
<!-- ... 586 like lines cut -->
		</NodeSet>
		<NodeSet name="FixedFluidDilatation1">
			<node id="3181"/>
			<node id="3182"/>
			<node id="3183"/>
			<node id="3184"/>
			<node id="3185"/>
			<node id="3186"/>
			<node id="3187"/>
			<node id="3188"/>
			<node id="3189"/>
			<node id="3190"/>
			<node id="3191"/>
			<node id="3192"/>
			<node id="3193"/>
			<node id="3194"/>
			<node id="3195"/>
			<node id="3196"/>
			<node id="3197"/>
			<node id="3198"/>
			<node id="3199"/>
			<node id="3200"/>
<!-- ... 80 like lines cut -->
		</NodeSet>
		<NodeSet name="PrescribedFluidDilatation1">
			<node id="1"/>
			<node id="2"/>
			<node id="3"/>
			<node id="4"/>
			<node id="5"/>
			<node id="6"/>
			<node id="7"/>
			<node id="8"/>
			<node id="9"/>
			<node id="10"/>
			<node id="11"/>
			<node id="12"/>
			<node id="13"/>
			<node id="14"/>
			<node id="15"/>
			<node id="16"/>
			<node id="17"/>
			<node id="18"/>
			<node id="19"/>
			<node id="20"/>
<!-- ... 10 like lines cut -->
		</NodeSet>
		<Surface name="FluidBackflowStabilization1">
			<quad4 id="1">  3181,  3183,  3184,  3182</quad4>
			<quad4 id="2">  3183,  3185,  3186,  3184</quad4>
			<quad4 id="3">  3185,  3187,  3188,  3186</quad4>
			<quad4 id="4">  3187,  3189,  3190,  3188</quad4>
			<quad4 id="5">  3189,  3191,  3192,  3190</quad4>
			<quad4 id="6">  3191,  3193,  3194,  3192</quad4>
			<quad4 id="7">  3193,  3195,  3196,  3194</quad4>
			<quad4 id="8">  3195,  3197,  3198,  3196</quad4>
			<quad4 id="9">  3197,  3199,  3200,  3198</quad4>
			<quad4 id="10">  3199,  3201,  3202,  3200</quad4>
			<quad4 id="11">  3201,  3203,  3204,  3202</quad4>
			<quad4 id="12">  3203,  3205,  3206,  3204</quad4>
			<quad4 id="13">  3205,  3207,  3208,  3206</quad4>
			<quad4 id="14">  3207,  3209,  3210,  3208</quad4>
			<quad4 id="15">  3209,  3211,  3212,  3210</quad4>
			<quad4 id="16">  3211,  3213,  3214,  3212</quad4>
			<quad4 id="17">  3213,  3215,  3216,  3214</quad4>
			<quad4 id="18">  3215,  3217,  3218,  3216</quad4>
			<quad4 id="19">  3217,  3219,  3220,  3218</quad4>
			<quad4 id="20">  4034,  3221,  3222,  4038</quad4>
<!-- ... 4 like lines cut -->
		</Surface>
		<Surface name="FluidTangentialStabilization1">
			<quad4 id="1">  3181,  3183,  3184,  3182</quad4>
			<quad4 id="2">  3183,  3185,  3186,  3184</quad4>
			<quad4 id="3">  3185,  3187,  3188,  3186</quad4>
			<quad4 id="4">  3187,  3189,  3190,  3188</quad4>
			<quad4 id="5">  3189,  3191,  3192,  3190</quad4>
			<quad4 id="6">  3191,  3193,  3194,  3192</quad4>
			<quad4 id="7">  3193,  3195,  3196,  3194</quad4>
			<quad4 id="8">  3195,  3197,  3198,  3196</quad4>
			<quad4 id="9">  3197,  3199,  3200,  3198</quad4>
			<quad4 id="10">  3199,  3201,  3202,  3200</quad4>
			<quad4 id="11">  3201,  3203,  3204,  3202</quad4>
			<quad4 id="12">  3203,  3205,  3206,  3204</quad4>
			<quad4 id="13">  3205,  3207,  3208,  3206</quad4>
			<quad4 id="14">  3207,  3209,  3210,  3208</quad4>
			<quad4 id="15">  3209,  3211,  3212,  3210</quad4>
			<quad4 id="16">  3211,  3213,  3214,  3212</quad4>
			<quad4 id="17">  3213,  3215,  3216,  3214</quad4>
			<quad4 id="18">  3215,  3217,  3218,  3216</quad4>
			<quad4 id="19">  3217,  3219,  3220,  3218</quad4>
			<quad4 id="20">  4034,  3221,  3222,  4038</quad4>
<!-- ... 4 like lines cut -->
		</Surface>
		<Surface name="NormalFlowConstraint1">
			<quad4 id="1">     3,     1,     2,     4</quad4>
			<quad4 id="2">     5,     3,     4,     6</quad4>
			<quad4 id="3">     7,     5,     6,     8</quad4>
			<quad4 id="4">     9,     7,     8,    10</quad4>
			<quad4 id="5">    11,     9,    10,    12</quad4>
			<quad4 id="6">    13,    11,    12,    14</quad4>
			<quad4 id="7">    15,    13,    14,    16</quad4>
			<quad4 id="8">    17,    15,    16,    18</quad4>
			<quad4 id="9">    19,    17,    18,    20</quad4>
			<quad4 id="10">    21,  3227,  3235,    22</quad4>
			<quad4 id="11">  3227,  3228,  3236,  3235</quad4>
			<quad4 id="12">  3228,  3229,  3237,  3236</quad4>
			<quad4 id="13">  3229,  3230,  3238,  3237</quad4>
			<quad4 id="14">  3230,    19,    20,  3238</quad4>
		</Surface>
	</Geometry>
	<Boundary>
		<fix bc="wz" node_set="FixedFluidVelocity1"/>
		<fix bc="wx,wy" node_set="FixedFluidVelocity2"/>
		<fix bc="ef" node_set="FixedFluidDilatation1"/>
		<prescribe bc="ef" node_set="PrescribedFluidDilatation1">
			<scale lc="1">-1e-009</scale>
			<relative>0</relative>
		</prescribe>
	</Boundary>
	<Loads>
		<surface_load type="fluid backflow stabilization" surface="FluidBackflowStabilization1">
			<beta lc="2">1</beta>
		</surface_load>
		<surface_load type="fluid tangential stabilization" surface="FluidTangentialStabilization1">
			<beta lc="3">1</beta>
		</surface_load>
	</Loads>
	<Contact>
	</Contact>
	<Constraints>
		<constraint type="normal fluid flow" name="NormalFlowConstraint1" surface="NormalFlowConstraint1">
			<laugon>0</laugon>
			<tol>0.2</tol>
			<penalty>1e+006</penalty>
			<minaug>0</minaug>
			<maxaug>0</maxaug>
			<rhs>0</rhs>
		</constraint>
	</Constraints>
	<LoadData>
		<loadcurve id="1" type="step">
			<point>0,0</point>
			<point>1,1</point>
		</loadcurve>
		<loadcurve id="2" type="smooth">
			<point>0,0</point>
			<point>1,1</point>
		</loadcurve>
		<loadcurve id="3" type="step">
			<point>0,0</point>
			<point>1,1</point>
		</loadcurve>
	</LoadData>
	<Output>
		<plotfile type="febio">
			<var type="fluid pressure"/>
			<var type="fluid acceleration"/>
			<var type="fluid dilatation"/>
			<var type="fluid rate of deformation"/>
			<var type="fluid stress"/>
			<var type="fluid velocity"/>
			<var type="fluid volume ratio"/>
			<var type="fluid vorticity"/>
			<var type="nodal fluid velocity"/>
		</plotfile>
	</Output>
</febio_spec>
