<?xml version="1.0" encoding="ISO-8859-1"?>
<febio_spec version="2.5">
	<Module type="fluid"/>
	<Control>
		<time_steps>300</time_steps>
		<step_size>0.1</step_size>
		<max_refs>5</max_refs>
		<max_ups>50</max_ups>
		<diverge_reform>0</diverge_reform>
		<reform_each_time_step>0</reform_each_time_step>
		<vtol>0.001</vtol>
		<ftol>0.001</ftol>
		<etol>0.01</etol>
		<rtol>0.001</rtol>
		<lstol>0.9</lstol>
		<min_residual>0</min_residual>
		<rhoi>0</rhoi>
		<qnmethod>1</qnmethod>
		<time_stepper>
			<dtmin>0.01</dtmin>
			<dtmax>0.1</dtmax>
			<max_retries>5</max_retries>
			<opt_iter>50</opt_iter>
		</time_stepper>
		<analysis type="dynamic"/>
	</Control>
	<Globals>
		<Constants>
			<T>0</T>
			<R>0</R>
			<Fc>0</Fc>
		</Constants>
	</Globals>
	<Material>
		<material id="1" name="Material2" type="fluid">
			<density>1</density>
			<k>1e+009</k>
			<viscous type="Newtonian fluid">
				<mu>0.01</mu>
				<kappa>0</kappa>
			</viscous>
		</material>
	</Material>
	<Geometry>
		<Nodes name="Object01">
			<node id="1">-4.5801270e-001, 2.0669873e-001,-5.0000000e-001</node>
			<node id="2"> 4.0801270e-001,-2.9330127e-001,-5.0000000e-001</node>
			<node id="3">-4.3668596e-001, 1.9438573e-001,-5.0000000e-001</node>
			<node id="4">-4.1216012e-001, 1.8022573e-001,-5.0000000e-001</node>
			<node id="5">-3.8395549e-001, 1.6394178e-001,-5.0000000e-001</node>
			<node id="6">-3.5152016e-001, 1.4521523e-001,-5.0000000e-001</node>
			<node id="7">-3.1421949e-001, 1.2367968e-001,-5.0000000e-001</node>
			<node id="8">-2.7132378e-001, 9.8913827e-002,-5.0000000e-001</node>
			<node id="9">-2.2199367e-001, 7.0433078e-002,-5.0000000e-001</node>
			<node id="10">-1.6526399e-001, 3.7680178e-002,-5.0000000e-001</node>
			<node id="11">-1.0002493e-001, 1.4393917e-005,-5.0000000e-001</node>
			<node id="12">-2.5000000e-002,-4.3301270e-002,-5.0000000e-001</node>
			<node id="13"> 5.0024933e-002,-8.6616935e-002,-5.0000000e-001</node>
			<node id="14"> 1.1526399e-001,-1.2428272e-001,-5.0000000e-001</node>
			<node id="15"> 1.7199367e-001,-1.5703562e-001,-5.0000000e-001</node>
			<node id="16"> 2.2132378e-001,-1.8551637e-001,-5.0000000e-001</node>
			<node id="17"> 2.6421949e-001,-2.1028222e-001,-5.0000000e-001</node>
			<node id="18"> 3.0152016e-001,-2.3181777e-001,-5.0000000e-001</node>
			<node id="19"> 3.3395549e-001,-2.5054432e-001,-5.0000000e-001</node>
			<node id="20"> 3.6216012e-001,-2.6682827e-001,-5.0000000e-001</node>
<!-- ... 5430 like lines cut -->
		</Nodes>
		<Elements type="hex8" mat="1" name="Part1">
			<elem id="1">  2726,  2746,  2864,  2865,     1,     3,   140,   139</elem>
			<elem id="2">  2746,  2745,  2866,  2864,     3,     4,   141,   140</elem>
			<elem id="3">  2745,  2744,  2867,  2866,     4,     5,   142,   141</elem>
			<elem id="4">  2744,  2743,  2868,  2867,     5,     6,   143,   142</elem>
			<elem id="5">  2743,  2742,  2869,  2868,     6,     7,   144,   143</elem>
			<elem id="6">  2742,  2741,  2870,  2869,     7,     8,   145,   144</elem>
			<elem id="7">  2741,  2740,  2871,  2870,     8,     9,   146,   145</elem>
			<elem id="8">  2740,  2739,  2872,  2871,     9,    10,   147,   146</elem>
			<elem id="9">  2739,  2738,  2873,  2872,    10,    11,   148,   147</elem>
			<elem id="10">  2738,  2737,  2874,  2873,    11,    12,   149,   148</elem>
			<elem id="11">  2737,  2736,  2875,  2874,    12,    13,   150,   149</elem>
			<elem id="12">  2736,  2735,  2876,  2875,    13,    14,   151,   150</elem>
			<elem id="13">  2735,  2734,  2877,  2876,    14,    15,   152,   151</elem>
			<elem id="14">  2734,  2733,  2878,  2877,    15,    16,   153,   152</elem>
			<elem id="15">  2733,  2732,  2879,  2878,    16,    17,   154,   153</elem>
			<elem id="16">  2732,  2731,  2880,  2879,    17,    18,   155,   154</elem>
			<elem id="17">  2731,  2730,  2881,  2880,    18,    19,   156,   155</elem>
			<elem id="18">  2730,  2729,  2882,  2881,    19,    20,   157,   156</elem>
			<elem id="19">  2729,  2728,  2883,  2882,    20,    21,   158,   157</elem>
			<elem id="20">  2728,  2727,  2884,  2883,    21,     2,   159,   158</elem>
<!-- ... 2636 like lines cut -->
		</Elements>
		<NodeSet name="FixedFluidVelocity1">
			<node id="1"/>
			<node id="2"/>
			<node id="3"/>
			<node id="4"/>
			<node id="5"/>
			<node id="6"/>
			<node id="7"/>
			<node id="8"/>
			<node id="9"/>
			<node id="10"/>
			<node id="11"/>
			<node id="12"/>
			<node id="13"/>
			<node id="14"/>
			<node id="15"/>
			<node id="16"/>
			<node id="17"/>
			<node id="18"/>
			<node id="19"/>
			<node id="20"/>
<!-- ... 10880 like lines cut -->
		</NodeSet>
		<NodeSet name="FixedFluidDilatation1">
			<node id="49"/>
			<node id="50"/>
			<node id="51"/>
			<node id="52"/>
			<node id="53"/>
			<node id="54"/>
			<node id="55"/>
			<node id="56"/>
			<node id="57"/>
			<node id="58"/>
			<node id="59"/>
			<node id="60"/>
			<node id="61"/>
			<node id="62"/>
			<node id="63"/>
			<node id="64"/>
			<node id="109"/>
			<node id="110"/>
			<node id="111"/>
			<node id="112"/>
<!-- ... 72 like lines cut -->
		</NodeSet>
		<NodeSet name="FixedFluidVelocity2">
			<node id="1"/>
			<node id="2"/>
			<node id="3"/>
			<node id="4"/>
			<node id="5"/>
			<node id="6"/>
			<node id="7"/>
			<node id="8"/>
			<node id="9"/>
			<node id="10"/>
			<node id="11"/>
			<node id="12"/>
			<node id="13"/>
			<node id="14"/>
			<node id="15"/>
			<node id="16"/>
			<node id="17"/>
			<node id="18"/>
			<node id="19"/>
			<node id="20"/>
<!-- ... 364 like lines cut -->
		</NodeSet>
		<Surface name="FluidVelocityVector1">
			<quad4 id="1">  2849,  2848,    65,    64</quad4>
			<quad4 id="2">  2848,  2847,    66,    65</quad4>
			<quad4 id="3">  2847,  2846,    67,    66</quad4>
			<quad4 id="4">  2846,  2845,    68,    67</quad4>
			<quad4 id="5">  2845,  2844,    69,    68</quad4>
			<quad4 id="6">  2844,  2843,    70,    69</quad4>
			<quad4 id="7">  2843,  2842,    71,    70</quad4>
			<quad4 id="8">  2842,  2841,    72,    71</quad4>
			<quad4 id="9">  2841,  2840,    73,    72</quad4>
			<quad4 id="10">  2840,  2839,    74,    73</quad4>
			<quad4 id="11">  2839,  2838,    75,    74</quad4>
			<quad4 id="12">  2838,  2837,    76,    75</quad4>
			<quad4 id="13">  2837,  2836,    77,    76</quad4>
			<quad4 id="14">  2836,  2835,    78,    77</quad4>
			<quad4 id="15">  2835,  2834,    79,    78</quad4>
			<quad4 id="16">  2834,  2833,    80,    79</quad4>
			<quad4 id="17">  2833,  2832,    81,    80</quad4>
			<quad4 id="18">  2832,  2831,    82,    81</quad4>
			<quad4 id="19">  2831,  2830,    83,    82</quad4>
			<quad4 id="20">  2830,  2829,    84,    83</quad4>
<!-- ... 25 like lines cut -->
		</Surface>
	</Geometry>
	<Boundary>
		<fix bc="wz" node_set="FixedFluidVelocity1"/>
		<fix bc="ef" node_set="FixedFluidDilatation1"/>
		<fix bc="wx,wy" node_set="FixedFluidVelocity2"/>
	</Boundary>
	<Loads>
		<surface_load type="fluid velocity" surface="FluidVelocityVector1">
			<scale lc="1">1</scale>
			<velocity>1,0,0</velocity>
		</surface_load>
	</Loads>
	<LoadData>
		<loadcurve id="1" type="step">
			<point>0,0</point>
			<point>1,1</point>
		</loadcurve>
	</LoadData>
	<Output>
		<plotfile type="febio">
			<var type="fluid pressure"/>
			<var type="fluid acceleration"/>
			<var type="fluid dilatation"/>
			<var type="fluid rate of deformation"/>
			<var type="fluid stress"/>
			<var type="fluid surface force"/>
			<var type="fluid velocity"/>
			<var type="fluid volume ratio"/>
			<var type="fluid vorticity"/>
			<var type="nodal fluid velocity"/>
		</plotfile>
	</Output>
</febio_spec>
