<?xml version="1.0" encoding="ISO-8859-1"?>
<febio_spec version="2.5">
	<Module type="fluid"/>
	<Control>
		<time_steps>50</time_steps>
		<step_size>0.1</step_size>
		<max_refs>2</max_refs>
		<max_ups>50</max_ups>
		<diverge_reform>0</diverge_reform>
		<reform_each_time_step>0</reform_each_time_step>
		<vtol>0.001</vtol>
		<ftol>0.001</ftol>
		<etol>0.01</etol>
		<rtol>0.001</rtol>
		<lstol>0.9</lstol>
		<min_residual>5e-016</min_residual>
		<rhoi>0</rhoi>
		<qnmethod>2</qnmethod>
		<analysis type="dynamic"/>
		<symmetric_stiffness>0</symmetric_stiffness>
	</Control>
	<Globals>
		<Constants>
			<T>0</T>
			<R>0</R>
			<Fc>0</Fc>
		</Constants>
	</Globals>
	<Material>
		<material id="1" name="Material1" type="fluid">
			<density>1.06</density>
			<k>2.2e+010</k>
			<viscous type="Carreau">
				<mu0>0.56</mu0>
				<mui>0.0345</mui>
				<lambda>3.313</lambda>
				<n>0.3568</n>
			</viscous>
		</material>
	</Material>
	<Geometry>
		<Nodes name="fl22">
			<node id="1"> 0.0000000e+000, 0.0000000e+000, 0.0000000e+000</node>
			<node id="2"> 3.0421067e-001, 0.0000000e+000, 0.0000000e+000</node>
			<node id="3"> 2.9836534e-001, 5.9348556e-002, 0.0000000e+000</node>
			<node id="4"> 2.8105401e-001, 1.1641638e-001, 0.0000000e+000</node>
			<node id="5"> 2.5294193e-001, 1.6901039e-001, 0.0000000e+000</node>
			<node id="6"> 2.1510943e-001, 2.1510942e-001, 0.0000000e+000</node>
			<node id="7"> 1.6901040e-001, 2.5294192e-001, 0.0000000e+000</node>
			<node id="8"> 1.1641639e-001, 2.8105401e-001, 0.0000000e+000</node>
			<node id="9"> 5.9348564e-002, 2.9836534e-001, 0.0000000e+000</node>
			<node id="10"> 8.1512934e-009, 3.0421067e-001, 0.0000000e+000</node>
			<node id="11"> 5.1715813e-001, 0.0000000e+000, 0.0000000e+000</node>
			<node id="12"> 5.0722109e-001, 1.0089255e-001, 0.0000000e+000</node>
			<node id="13"> 4.7779182e-001, 1.9790785e-001, 0.0000000e+000</node>
			<node id="14"> 4.3000128e-001, 2.8731766e-001, 0.0000000e+000</node>
			<node id="15"> 3.6568603e-001, 3.6568602e-001, 0.0000000e+000</node>
			<node id="16"> 2.8731767e-001, 4.3000127e-001, 0.0000000e+000</node>
			<node id="17"> 1.9790786e-001, 4.7779181e-001, 0.0000000e+000</node>
			<node id="18"> 1.0089256e-001, 5.0722108e-001, 0.0000000e+000</node>
			<node id="19"> 1.3857199e-008, 5.1715813e-001, 0.0000000e+000</node>
			<node id="20"> 6.6622136e-001, 0.0000000e+000, 0.0000000e+000</node>
<!-- ... 4994 like lines cut -->
		</Nodes>
		<Elements type="penta6" mat="1" name="Part2">
			<elem id="1">     1,     2,     3,   110,   111,   112</elem>
			<elem id="2">     1,     3,     4,   110,   112,   113</elem>
			<elem id="3">     1,     4,     5,   110,   113,   114</elem>
			<elem id="4">     1,     5,     6,   110,   114,   115</elem>
			<elem id="5">     1,     6,     7,   110,   115,   116</elem>
			<elem id="6">     1,     7,     8,   110,   116,   117</elem>
			<elem id="7">     1,     8,     9,   110,   117,   118</elem>
			<elem id="8">     1,     9,    10,   110,   118,   119</elem>
			<elem id="9">   110,   111,   112,   219,   220,   221</elem>
			<elem id="10">   110,   112,   113,   219,   221,   222</elem>
			<elem id="11">   110,   113,   114,   219,   222,   223</elem>
			<elem id="12">   110,   114,   115,   219,   223,   224</elem>
			<elem id="13">   110,   115,   116,   219,   224,   225</elem>
			<elem id="14">   110,   116,   117,   219,   225,   226</elem>
			<elem id="15">   110,   117,   118,   219,   226,   227</elem>
			<elem id="16">   110,   118,   119,   219,   227,   228</elem>
			<elem id="17">   219,   220,   221,   328,   329,   330</elem>
			<elem id="18">   219,   221,   222,   328,   330,   331</elem>
			<elem id="19">   219,   222,   223,   328,   331,   332</elem>
			<elem id="20">   219,   223,   224,   328,   332,   333</elem>
<!-- ... 340 like lines cut -->
		</Elements>
		<Elements type="hex8" mat="1" name="Part2">
			<elem id="361">     2,    11,    12,     3,   111,   120,   121,   112</elem>
			<elem id="362">     3,    12,    13,     4,   112,   121,   122,   113</elem>
			<elem id="363">     4,    13,    14,     5,   113,   122,   123,   114</elem>
			<elem id="364">     5,    14,    15,     6,   114,   123,   124,   115</elem>
			<elem id="365">     6,    15,    16,     7,   115,   124,   125,   116</elem>
			<elem id="366">     7,    16,    17,     8,   116,   125,   126,   117</elem>
			<elem id="367">     8,    17,    18,     9,   117,   126,   127,   118</elem>
			<elem id="368">     9,    18,    19,    10,   118,   127,   128,   119</elem>
			<elem id="369">    11,    20,    21,    12,   120,   129,   130,   121</elem>
			<elem id="370">    12,    21,    22,    13,   121,   130,   131,   122</elem>
			<elem id="371">    13,    22,    23,    14,   122,   131,   132,   123</elem>
			<elem id="372">    14,    23,    24,    15,   123,   132,   133,   124</elem>
			<elem id="373">    15,    24,    25,    16,   124,   133,   134,   125</elem>
			<elem id="374">    16,    25,    26,    17,   125,   134,   135,   126</elem>
			<elem id="375">    17,    26,    27,    18,   126,   135,   136,   127</elem>
			<elem id="376">    18,    27,    28,    19,   127,   136,   137,   128</elem>
			<elem id="377">    20,    29,    30,    21,   129,   138,   139,   130</elem>
			<elem id="378">    21,    30,    31,    22,   130,   139,   140,   131</elem>
			<elem id="379">    22,    31,    32,    23,   131,   140,   141,   132</elem>
			<elem id="380">    23,    32,    33,    24,   132,   141,   142,   133</elem>
<!-- ... 3940 like lines cut -->
		</Elements>
		<NodeSet name="FixedFluidVelocity01">
			<node id="101"/>
			<node id="102"/>
			<node id="103"/>
			<node id="104"/>
			<node id="105"/>
			<node id="106"/>
			<node id="107"/>
			<node id="108"/>
			<node id="109"/>
			<node id="210"/>
			<node id="211"/>
			<node id="212"/>
			<node id="213"/>
			<node id="214"/>
			<node id="215"/>
			<node id="216"/>
			<node id="217"/>
			<node id="218"/>
			<node id="319"/>
			<node id="320"/>
<!-- ... 394 like lines cut -->
		</NodeSet>
		<NodeSet name="FixedFluidDilatation01">
			<node id="4906"/>
			<node id="4907"/>
			<node id="4908"/>
			<node id="4909"/>
			<node id="4910"/>
			<node id="4911"/>
			<node id="4912"/>
			<node id="4913"/>
			<node id="4914"/>
			<node id="4915"/>
			<node id="4916"/>
			<node id="4917"/>
			<node id="4918"/>
			<node id="4919"/>
			<node id="4920"/>
			<node id="4921"/>
			<node id="4922"/>
			<node id="4923"/>
			<node id="4924"/>
			<node id="4925"/>
<!-- ... 89 like lines cut -->
		</NodeSet>
		<NodeSet name="FixedFluidVelocity02">
			<node id="1"/>
			<node id="10"/>
			<node id="19"/>
			<node id="28"/>
			<node id="37"/>
			<node id="46"/>
			<node id="55"/>
			<node id="64"/>
			<node id="73"/>
			<node id="82"/>
			<node id="91"/>
			<node id="100"/>
			<node id="109"/>
			<node id="110"/>
			<node id="119"/>
			<node id="128"/>
			<node id="137"/>
			<node id="146"/>
			<node id="155"/>
			<node id="164"/>
<!-- ... 578 like lines cut -->
		</NodeSet>
		<NodeSet name="FixedFluidVelocity03">
			<node id="1"/>
			<node id="2"/>
			<node id="11"/>
			<node id="20"/>
			<node id="29"/>
			<node id="38"/>
			<node id="47"/>
			<node id="56"/>
			<node id="65"/>
			<node id="74"/>
			<node id="83"/>
			<node id="92"/>
			<node id="101"/>
			<node id="110"/>
			<node id="111"/>
			<node id="120"/>
			<node id="129"/>
			<node id="138"/>
			<node id="147"/>
			<node id="156"/>
<!-- ... 578 like lines cut -->
		</NodeSet>
		<NodeSet name="PrescribedBC07">
			<node id="1"/>
			<node id="2"/>
			<node id="3"/>
			<node id="4"/>
			<node id="5"/>
			<node id="6"/>
			<node id="7"/>
			<node id="8"/>
			<node id="9"/>
			<node id="10"/>
			<node id="11"/>
			<node id="12"/>
			<node id="13"/>
			<node id="14"/>
			<node id="15"/>
			<node id="16"/>
			<node id="17"/>
			<node id="18"/>
			<node id="19"/>
			<node id="20"/>
<!-- ... 89 like lines cut -->
		</NodeSet>
		<Surface name="NormalFlowSurface01">
			<tri3 id="1">     1,     3,     2</tri3>
			<tri3 id="2">     1,     4,     3</tri3>
			<tri3 id="3">     1,     5,     4</tri3>
			<tri3 id="4">     1,     6,     5</tri3>
			<tri3 id="5">     1,     7,     6</tri3>
			<tri3 id="6">     1,     8,     7</tri3>
			<tri3 id="7">     1,     9,     8</tri3>
			<tri3 id="8">     1,    10,     9</tri3>
			<quad4 id="9">     3,    12,    11,     2</quad4>
			<quad4 id="10">     4,    13,    12,     3</quad4>
			<quad4 id="11">     5,    14,    13,     4</quad4>
			<quad4 id="12">     6,    15,    14,     5</quad4>
			<quad4 id="13">     7,    16,    15,     6</quad4>
			<quad4 id="14">     8,    17,    16,     7</quad4>
			<quad4 id="15">     9,    18,    17,     8</quad4>
			<quad4 id="16">    10,    19,    18,     9</quad4>
			<quad4 id="17">    12,    21,    20,    11</quad4>
			<quad4 id="18">    13,    22,    21,    12</quad4>
			<quad4 id="19">    14,    23,    22,    13</quad4>
			<quad4 id="20">    15,    24,    23,    14</quad4>
			<quad4 id="21">    16,    25,    24,    15</quad4>
			<quad4 id="22">    17,    26,    25,    16</quad4>
			<quad4 id="23">    18,    27,    26,    17</quad4>
			<quad4 id="24">    19,    28,    27,    18</quad4>
			<quad4 id="25">    21,    30,    29,    20</quad4>
			<quad4 id="26">    22,    31,    30,    21</quad4>
			<quad4 id="27">    23,    32,    31,    22</quad4>
			<quad4 id="28">    24,    33,    32,    23</quad4>
<!-- ... 68 like lines cut -->
		</Surface>
		<Surface name="NormalFlowSurface02">
			<tri3 id="1">  4906,  4907,  4908</tri3>
			<tri3 id="2">  4906,  4908,  4909</tri3>
			<tri3 id="3">  4906,  4909,  4910</tri3>
			<tri3 id="4">  4906,  4910,  4911</tri3>
			<tri3 id="5">  4906,  4911,  4912</tri3>
			<tri3 id="6">  4906,  4912,  4913</tri3>
			<tri3 id="7">  4906,  4913,  4914</tri3>
			<tri3 id="8">  4906,  4914,  4915</tri3>
			<quad4 id="9">  4907,  4916,  4917,  4908</quad4>
			<quad4 id="10">  4908,  4917,  4918,  4909</quad4>
			<quad4 id="11">  4909,  4918,  4919,  4910</quad4>
			<quad4 id="12">  4910,  4919,  4920,  4911</quad4>
			<quad4 id="13">  4911,  4920,  4921,  4912</quad4>
			<quad4 id="14">  4912,  4921,  4922,  4913</quad4>
			<quad4 id="15">  4913,  4922,  4923,  4914</quad4>
			<quad4 id="16">  4914,  4923,  4924,  4915</quad4>
			<quad4 id="17">  4916,  4925,  4926,  4917</quad4>
			<quad4 id="18">  4917,  4926,  4927,  4918</quad4>
			<quad4 id="19">  4918,  4927,  4928,  4919</quad4>
			<quad4 id="20">  4919,  4928,  4929,  4920</quad4>
			<quad4 id="21">  4920,  4929,  4930,  4921</quad4>
			<quad4 id="22">  4921,  4930,  4931,  4922</quad4>
			<quad4 id="23">  4922,  4931,  4932,  4923</quad4>
			<quad4 id="24">  4923,  4932,  4933,  4924</quad4>
			<quad4 id="25">  4925,  4934,  4935,  4926</quad4>
			<quad4 id="26">  4926,  4935,  4936,  4927</quad4>
			<quad4 id="27">  4927,  4936,  4937,  4928</quad4>
			<quad4 id="28">  4928,  4937,  4938,  4929</quad4>
<!-- ... 68 like lines cut -->
		</Surface>
	</Geometry>
	<Boundary>
		<fix bc="wx,wy,wz" node_set="FixedFluidVelocity01"/>
		<fix bc="ef" node_set="FixedFluidDilatation01"/>
		<fix bc="wx" node_set="FixedFluidVelocity02"/>
		<fix bc="wy" node_set="FixedFluidVelocity03"/>
		<prescribe bc="ef" node_set="PrescribedBC07">
			<scale lc="1">-1</scale>
			<relative>0</relative>
		</prescribe>
	</Boundary>
	<Contact>
	</Contact>
	<Constraints>
		<constraint type="normal fluid flow" name="NormalFlowSurface02" surface="NormalFlowSurface01">
			<laugon>0</laugon>
			<tol>0.2</tol>
			<penalty>1e+006</penalty>
			<minaug>0</minaug>
			<maxaug>0</maxaug>
			<rhs>0</rhs>
		</constraint>
		<constraint type="normal fluid flow" name="NormalFlowSurface03" surface="NormalFlowSurface02">
			<laugon>0</laugon>
			<tol>0.2</tol>
			<penalty>1e+006</penalty>
			<minaug>0</minaug>
			<maxaug>0</maxaug>
			<rhs>0</rhs>
		</constraint>
	</Constraints>
	<LoadData>
		<loadcurve id="1" type="smooth">
			<point>0,0</point>
			<point>1,2.07e-010</point>
		</loadcurve>
	</LoadData>
	<Output>
		<plotfile type="febio">
			<var type="displacement"/>
			<var type="velocity"/>
			<var type="fluid pressure"/>
			<var type="fluid acceleration"/>
			<var type="fluid dilatation"/>
			<var type="fluid rate of deformation"/>
			<var type="fluid shear viscosity"/>
			<var type="fluid stress"/>
			<var type="fluid velocity"/>
			<var type="fluid vorticity"/>
			<var type="nodal fluid velocity"/>
		</plotfile>
	</Output>
</febio_spec>
