<?xml version="1.0" encoding="ISO-8859-1"?>
<febio_spec version="2.5">
	<Module type="fluid"/>
	<Control>
		<time_steps>1</time_steps>
		<step_size>1</step_size>
		<max_refs>5</max_refs>
		<max_ups>10</max_ups>
		<diverge_reform>0</diverge_reform>
		<reform_each_time_step>1</reform_each_time_step>
		<vtol>0.001</vtol>
		<ftol>0.001</ftol>
		<etol>0.01</etol>
		<rtol>0.001</rtol>
		<lstol>0.9</lstol>
		<min_residual>0</min_residual>
		<rhoi>-1</rhoi>
		<qnmethod>1</qnmethod>
		<time_stepper>
			<dtmin>0.1</dtmin>
			<dtmax>1</dtmax>
			<max_retries>5</max_retries>
			<opt_iter>10</opt_iter>
		</time_stepper>
		<analysis type="steady-state"/>
		<symmetric_stiffness>0</symmetric_stiffness>
		<equation_scheme>1</equation_scheme>
	</Control>
	<Globals>
		<Constants>
			<T>0</T>
			<R>0</R>
			<Fc>0</Fc>
		</Constants>
	</Globals>
	<Material>
		<material id="1" name="Material1" type="fluid">
			<density>1</density>
			<k>1e+009</k>
			<viscous type="Newtonian fluid">
				<mu>1</mu>
				<kappa>0</kappa>
			</viscous>
		</material>
	</Material>
	<Geometry>
		<Nodes name="Object01">
			<node id="1"> 0.0000000e+000, 0.0000000e+000, 0.0000000e+000</node>
			<node id="2"> 1.5436030e-001, 0.0000000e+000, 0.0000000e+000</node>
			<node id="3"> 1.5139431e-001, 3.0114199e-002, 0.0000000e+000</node>
			<node id="4"> 1.4261032e-001, 5.9071127e-002, 0.0000000e+000</node>
			<node id="5"> 1.2834590e-001, 8.5757985e-002, 0.0000000e+000</node>
			<node id="6"> 1.0914921e-001, 1.0914921e-001, 0.0000000e+000</node>
			<node id="7"> 8.5757988e-002, 1.2834589e-001, 0.0000000e+000</node>
			<node id="8"> 5.9071131e-002, 1.4261032e-001, 0.0000000e+000</node>
			<node id="9"> 3.0114203e-002, 1.5139431e-001, 0.0000000e+000</node>
			<node id="10"> 4.1360682e-009, 1.5436030e-001, 0.0000000e+000</node>
			<node id="11">-3.0114195e-002, 1.5139431e-001, 0.0000000e+000</node>
			<node id="12">-5.9071123e-002, 1.4261032e-001, 0.0000000e+000</node>
			<node id="13">-8.5757981e-002, 1.2834590e-001, 0.0000000e+000</node>
			<node id="14">-1.0914921e-001, 1.0914922e-001, 0.0000000e+000</node>
			<node id="15">-1.2834589e-001, 8.5757991e-002, 0.0000000e+000</node>
			<node id="16">-1.4261032e-001, 5.9071135e-002, 0.0000000e+000</node>
			<node id="17">-1.5139430e-001, 3.0114208e-002, 0.0000000e+000</node>
			<node id="18">-1.5436030e-001, 8.2721364e-009, 0.0000000e+000</node>
			<node id="19">-1.5139431e-001,-3.0114191e-002, 0.0000000e+000</node>
			<node id="20">-1.4261032e-001,-5.9071119e-002, 0.0000000e+000</node>
<!-- ... 6721 like lines cut -->
		</Nodes>
		<Elements type="penta6" mat="1" name="Part1">
			<elem id="1">     1,     2,     3,   322,   323,   324</elem>
			<elem id="2">     1,     3,     4,   322,   324,   325</elem>
			<elem id="3">     1,     4,     5,   322,   325,   326</elem>
			<elem id="4">     1,     5,     6,   322,   326,   327</elem>
			<elem id="5">     1,     6,     7,   322,   327,   328</elem>
			<elem id="6">     1,     7,     8,   322,   328,   329</elem>
			<elem id="7">     1,     8,     9,   322,   329,   330</elem>
			<elem id="8">     1,     9,    10,   322,   330,   331</elem>
			<elem id="9">     1,    10,    11,   322,   331,   332</elem>
			<elem id="10">     1,    11,    12,   322,   332,   333</elem>
			<elem id="11">     1,    12,    13,   322,   333,   334</elem>
			<elem id="12">     1,    13,    14,   322,   334,   335</elem>
			<elem id="13">     1,    14,    15,   322,   335,   336</elem>
			<elem id="14">     1,    15,    16,   322,   336,   337</elem>
			<elem id="15">     1,    16,    17,   322,   337,   338</elem>
			<elem id="16">     1,    17,    18,   322,   338,   339</elem>
			<elem id="17">     1,    18,    19,   322,   339,   340</elem>
			<elem id="18">     1,    19,    20,   322,   340,   341</elem>
			<elem id="19">     1,    20,    21,   322,   341,   342</elem>
			<elem id="20">     1,    21,    22,   322,   342,   343</elem>
<!-- ... 620 like lines cut -->
		</Elements>
		<Elements type="hex8" mat="1" name="Part1__2">
			<elem id="641">     2,    34,    35,     3,   323,   355,   356,   324</elem>
			<elem id="642">     3,    35,    36,     4,   324,   356,   357,   325</elem>
			<elem id="643">     4,    36,    37,     5,   325,   357,   358,   326</elem>
			<elem id="644">     5,    37,    38,     6,   326,   358,   359,   327</elem>
			<elem id="645">     6,    38,    39,     7,   327,   359,   360,   328</elem>
			<elem id="646">     7,    39,    40,     8,   328,   360,   361,   329</elem>
			<elem id="647">     8,    40,    41,     9,   329,   361,   362,   330</elem>
			<elem id="648">     9,    41,    42,    10,   330,   362,   363,   331</elem>
			<elem id="649">    10,    42,    43,    11,   331,   363,   364,   332</elem>
			<elem id="650">    11,    43,    44,    12,   332,   364,   365,   333</elem>
			<elem id="651">    12,    44,    45,    13,   333,   365,   366,   334</elem>
			<elem id="652">    13,    45,    46,    14,   334,   366,   367,   335</elem>
			<elem id="653">    14,    46,    47,    15,   335,   367,   368,   336</elem>
			<elem id="654">    15,    47,    48,    16,   336,   368,   369,   337</elem>
			<elem id="655">    16,    48,    49,    17,   337,   369,   370,   338</elem>
			<elem id="656">    17,    49,    50,    18,   338,   370,   371,   339</elem>
			<elem id="657">    18,    50,    51,    19,   339,   371,   372,   340</elem>
			<elem id="658">    19,    51,    52,    20,   340,   372,   373,   341</elem>
			<elem id="659">    20,    52,    53,    21,   341,   373,   374,   342</elem>
			<elem id="660">    21,    53,    54,    22,   342,   374,   375,   343</elem>
<!-- ... 5740 like lines cut -->
		</Elements>
		<NodeSet name="FixedFluidVelocity1">
			<node id="290"/>
			<node id="291"/>
			<node id="292"/>
			<node id="293"/>
			<node id="294"/>
			<node id="295"/>
			<node id="296"/>
			<node id="297"/>
			<node id="298"/>
			<node id="299"/>
			<node id="300"/>
			<node id="301"/>
			<node id="302"/>
			<node id="303"/>
			<node id="304"/>
			<node id="305"/>
			<node id="306"/>
			<node id="307"/>
			<node id="308"/>
			<node id="309"/>
<!-- ... 2668 like lines cut -->
		</NodeSet>
		<NodeSet name="FixedFluidDilatation1">
			<node id="6421"/>
			<node id="6422"/>
			<node id="6423"/>
			<node id="6424"/>
			<node id="6425"/>
			<node id="6426"/>
			<node id="6427"/>
			<node id="6428"/>
			<node id="6429"/>
			<node id="6430"/>
			<node id="6431"/>
			<node id="6432"/>
			<node id="6433"/>
			<node id="6434"/>
			<node id="6435"/>
			<node id="6436"/>
			<node id="6437"/>
			<node id="6438"/>
			<node id="6439"/>
			<node id="6440"/>
<!-- ... 301 like lines cut -->
		</NodeSet>
		<NodeSet name="FixedFluidVelocity2">
			<node id="1"/>
			<node id="2"/>
			<node id="3"/>
			<node id="4"/>
			<node id="5"/>
			<node id="6"/>
			<node id="7"/>
			<node id="8"/>
			<node id="9"/>
			<node id="10"/>
			<node id="11"/>
			<node id="12"/>
			<node id="13"/>
			<node id="14"/>
			<node id="15"/>
			<node id="16"/>
			<node id="17"/>
			<node id="18"/>
			<node id="19"/>
			<node id="20"/>
<!-- ... 1264 like lines cut -->
		</NodeSet>
		<NodeSet name="PrescribedFluidDilatation1">
			<node id="1"/>
			<node id="2"/>
			<node id="3"/>
			<node id="4"/>
			<node id="5"/>
			<node id="6"/>
			<node id="7"/>
			<node id="8"/>
			<node id="9"/>
			<node id="10"/>
			<node id="11"/>
			<node id="12"/>
			<node id="13"/>
			<node id="14"/>
			<node id="15"/>
			<node id="16"/>
			<node id="17"/>
			<node id="18"/>
			<node id="19"/>
			<node id="20"/>
<!-- ... 301 like lines cut -->
		</NodeSet>
	</Geometry>
	<Boundary>
		<fix bc="wx,wy,wz" node_set="FixedFluidVelocity1"/>
		<fix bc="ef" node_set="FixedFluidDilatation1"/>
		<fix bc="wx,wy" node_set="FixedFluidVelocity2"/>
		<prescribe bc="ef" node_set="PrescribedFluidDilatation1">
			<scale lc="1">-1e-006</scale>
			<relative>0</relative>
		</prescribe>
	</Boundary>
	<LoadData>
		<loadcurve id="1" type="step">
			<point>0,0</point>
			<point>1,1</point>
		</loadcurve>
	</LoadData>
	<Output>
		<plotfile type="febio">
			<var type="fluid pressure"/>
			<var type="fluid acceleration"/>
			<var type="fluid density"/>
			<var type="fluid dilatation"/>
			<var type="fluid rate of deformation"/>
			<var type="fluid stress"/>
			<var type="fluid displacement"/>
			<var type="fluid volume ratio"/>
			<var type="fluid vorticity"/>
			<var type="nodal fluid displacement"/>
		</plotfile>
	</Output>
</febio_spec>
