<?xml version="1.0" encoding="ISO-8859-1"?>
<febio_spec version="2.5">
	<Module type="fluid"/>
	<Control>
		<time_steps>10000</time_steps>
		<step_size>0.1</step_size>
		<max_refs>2</max_refs>
		<max_ups>50</max_ups>
		<diverge_reform>0</diverge_reform>
		<reform_each_time_step>0</reform_each_time_step>
		<vtol>0.001</vtol>
		<ftol>0.001</ftol>
		<etol>0.01</etol>
		<rtol>0.001</rtol>
		<lstol>0.9</lstol>
		<min_residual>5e-016</min_residual>
		<rhoi>0</rhoi>
		<qnmethod>1</qnmethod>
		<time_stepper>
			<dtmin>0.1</dtmin>
			<dtmax lc="1"></dtmax>
			<max_retries>5</max_retries>
			<opt_iter>50</opt_iter>
		</time_stepper>
		<analysis type="dynamic"/>
		<symmetric_stiffness>0</symmetric_stiffness>
		<equation_scheme>1</equation_scheme>
	</Control>
	<Globals>
		<Constants>
			<T>0</T>
			<R>0</R>
			<Fc>0</Fc>
		</Constants>
	</Globals>
	<Material>
		<material id="1" name="Material1" type="fluid">
			<density>1</density>
			<k>1e+009</k>
			<viscous type="Newtonian fluid">
				<mu>0.0025</mu>
				<kappa>0</kappa>
			</viscous>
		</material>
	</Material>
	<Geometry>
		<Nodes name="fl29">
			<node id="1"> 0.0000000e+000, 0.0000000e+000, 0.0000000e+000</node>
			<node id="2"> 0.0000000e+000, 0.0000000e+000, 2.5000000e-002</node>
			<node id="3"> 0.0000000e+000, 0.0000000e+000, 5.0000000e-002</node>
			<node id="4"> 0.0000000e+000, 2.7149148e-003, 0.0000000e+000</node>
			<node id="5"> 0.0000000e+000, 2.7149148e-003, 5.0000000e-002</node>
			<node id="6"> 0.0000000e+000, 5.8370668e-003, 0.0000000e+000</node>
			<node id="7"> 0.0000000e+000, 5.8370668e-003, 2.5000000e-002</node>
			<node id="8"> 0.0000000e+000, 5.8370668e-003, 5.0000000e-002</node>
			<node id="9"> 0.0000000e+000, 9.4275417e-003, 0.0000000e+000</node>
			<node id="10"> 0.0000000e+000, 9.4275417e-003, 5.0000000e-002</node>
			<node id="11"> 0.0000000e+000, 1.3556588e-002, 0.0000000e+000</node>
			<node id="12"> 0.0000000e+000, 1.3556588e-002, 2.5000000e-002</node>
			<node id="13"> 0.0000000e+000, 1.3556588e-002, 5.0000000e-002</node>
			<node id="14"> 0.0000000e+000, 1.8304991e-002, 0.0000000e+000</node>
			<node id="15"> 0.0000000e+000, 1.8304991e-002, 5.0000000e-002</node>
			<node id="16"> 0.0000000e+000, 2.3765654e-002, 0.0000000e+000</node>
			<node id="17"> 0.0000000e+000, 2.3765654e-002, 2.5000000e-002</node>
			<node id="18"> 0.0000000e+000, 2.3765654e-002, 5.0000000e-002</node>
			<node id="19"> 0.0000000e+000, 3.0045417e-002, 0.0000000e+000</node>
			<node id="20"> 0.0000000e+000, 3.0045417e-002, 5.0000000e-002</node>
<!-- ... 4255 like lines cut -->
		</Nodes>
		<Elements type="hex20" mat="1" name="Part1">
			<elem id="1">     1,   174,   179,     6,     3,   176,   181,     8,   124,   177,   126,     4,   125,   178,   127,     5,     2,   175,   180,     7</elem>
			<elem id="2">     6,   179,   184,    11,     8,   181,   186,    13,   126,   182,   128,     9,   127,   183,   129,    10,     7,   180,   185,    12</elem>
			<elem id="3">    11,   184,   189,    16,    13,   186,   191,    18,   128,   187,   130,    14,   129,   188,   131,    15,    12,   185,   190,    17</elem>
			<elem id="4">    16,   189,   194,    21,    18,   191,   196,    23,   130,   192,   132,    19,   131,   193,   133,    20,    17,   190,   195,    22</elem>
			<elem id="5">    21,   194,   199,    26,    23,   196,   201,    28,   132,   197,   134,    24,   133,   198,   135,    25,    22,   195,   200,    27</elem>
			<elem id="6">    26,   199,   204,    31,    28,   201,   206,    33,   134,   202,   136,    29,   135,   203,   137,    30,    27,   200,   205,    32</elem>
			<elem id="7">    31,   204,   209,    36,    33,   206,   211,    38,   136,   207,   138,    34,   137,   208,   139,    35,    32,   205,   210,    37</elem>
			<elem id="8">    36,   209,   214,    41,    38,   211,   216,    43,   138,   212,   140,    39,   139,   213,   141,    40,    37,   210,   215,    42</elem>
			<elem id="9">    41,   214,   219,    46,    43,   216,   221,    48,   140,   217,   142,    44,   141,   218,   143,    45,    42,   215,   220,    47</elem>
			<elem id="10">    46,   219,   224,    51,    48,   221,   226,    53,   142,   222,   144,    49,   143,   223,   145,    50,    47,   220,   225,    52</elem>
			<elem id="11">    51,   224,   229,    56,    53,   226,   231,    58,   144,   227,   146,    54,   145,   228,   147,    55,    52,   225,   230,    57</elem>
			<elem id="12">    56,   229,   234,    61,    58,   231,   236,    63,   146,   232,   148,    59,   147,   233,   149,    60,    57,   230,   235,    62</elem>
			<elem id="13">    61,   234,   239,    66,    63,   236,   241,    68,   148,   237,   150,    64,   149,   238,   151,    65,    62,   235,   240,    67</elem>
			<elem id="14">    66,   239,   244,    71,    68,   241,   246,    73,   150,   242,   152,    69,   151,   243,   153,    70,    67,   240,   245,    72</elem>
			<elem id="15">    71,   244,   249,    76,    73,   246,   251,    78,   152,   247,   154,    74,   153,   248,   155,    75,    72,   245,   250,    77</elem>
			<elem id="16">    76,   249,   254,    81,    78,   251,   256,    83,   154,   252,   156,    79,   155,   253,   157,    80,    77,   250,   255,    82</elem>
			<elem id="17">    81,   254,   259,    86,    83,   256,   261,    88,   156,   257,   158,    84,   157,   258,   159,    85,    82,   255,   260,    87</elem>
			<elem id="18">    86,   259,   264,    91,    88,   261,   266,    93,   158,   262,   160,    89,   159,   263,   161,    90,    87,   260,   265,    92</elem>
			<elem id="19">    91,   264,   269,    96,    93,   266,   271,    98,   160,   267,   162,    94,   161,   268,   163,    95,    92,   265,   270,    97</elem>
			<elem id="20">    96,   269,   274,   101,    98,   271,   276,   103,   162,   272,   164,    99,   163,   273,   165,   100,    97,   270,   275,   102</elem>
<!-- ... 556 like lines cut -->
		</Elements>
		<NodeSet name="FixedFluidVelocity01">
			<node id="1"/>
			<node id="2"/>
			<node id="3"/>
			<node id="4"/>
			<node id="5"/>
			<node id="6"/>
			<node id="7"/>
			<node id="8"/>
			<node id="9"/>
			<node id="10"/>
			<node id="11"/>
			<node id="12"/>
			<node id="13"/>
			<node id="14"/>
			<node id="15"/>
			<node id="16"/>
			<node id="17"/>
			<node id="18"/>
			<node id="19"/>
			<node id="20"/>
<!-- ... 1069 like lines cut -->
		</NodeSet>
		<NodeSet name="FixedFluidVelocity02">
			<node id="121"/>
			<node id="122"/>
			<node id="123"/>
			<node id="172"/>
			<node id="173"/>
			<node id="294"/>
			<node id="295"/>
			<node id="296"/>
			<node id="345"/>
			<node id="346"/>
			<node id="467"/>
			<node id="468"/>
			<node id="469"/>
			<node id="518"/>
			<node id="519"/>
			<node id="640"/>
			<node id="641"/>
			<node id="642"/>
			<node id="691"/>
			<node id="692"/>
<!-- ... 103 like lines cut -->
		</NodeSet>
		<NodeSet name="FixedFluidDilatation01">
			<node id="121"/>
			<node id="122"/>
			<node id="123"/>
			<node id="4273"/>
			<node id="4274"/>
			<node id="4275"/>
			<node id="121"/>
			<node id="122"/>
			<node id="123"/>
			<node id="4273"/>
			<node id="4274"/>
			<node id="4275"/>
		</NodeSet>
		<NodeSet name="FixedFluidVelocity03">
			<node id="1"/>
			<node id="3"/>
			<node id="4"/>
			<node id="5"/>
			<node id="6"/>
			<node id="8"/>
			<node id="9"/>
			<node id="10"/>
			<node id="11"/>
			<node id="13"/>
			<node id="14"/>
			<node id="15"/>
			<node id="16"/>
			<node id="18"/>
			<node id="19"/>
			<node id="20"/>
			<node id="21"/>
			<node id="23"/>
			<node id="24"/>
			<node id="25"/>
<!-- ... 7280 like lines cut -->
		</NodeSet>
		<NodeSet name="PrescribedBC09">
			<node id="121"/>
			<node id="122"/>
			<node id="123"/>
			<node id="172"/>
			<node id="173"/>
			<node id="294"/>
			<node id="295"/>
			<node id="296"/>
			<node id="345"/>
			<node id="346"/>
			<node id="467"/>
			<node id="468"/>
			<node id="469"/>
			<node id="518"/>
			<node id="519"/>
			<node id="640"/>
			<node id="641"/>
			<node id="642"/>
			<node id="691"/>
			<node id="692"/>
<!-- ... 103 like lines cut -->
		</NodeSet>
	</Geometry>
	<Boundary>
		<fix bc="wx,wy,wz" node_set="FixedFluidVelocity01"/>
		<fix bc="wx,wz" node_set="FixedFluidVelocity02"/>
		<fix bc="ef" node_set="FixedFluidDilatation01"/>
		<fix bc="wz" node_set="FixedFluidVelocity03"/>
		<prescribe bc="wx" node_set="PrescribedBC09">
			<scale lc="2">1</scale>
			<relative>0</relative>
		</prescribe>
	</Boundary>
	<LoadData>
		<loadcurve id="1" type="step">
			<point>0,0</point>
			<point>1,0.1</point>
			<point>2,0.1</point>
			<point>10,1</point>
			<point>100,10</point>
			<point>1000,100</point>
		</loadcurve>
		<loadcurve id="2" type="smooth">
			<point>0,0</point>
			<point>1,1</point>
		</loadcurve>
	</LoadData>
	<Output>
		<plotfile type="febio">
			<var type="velocity"/>
			<var type="fluid pressure"/>
			<var type="fluid acceleration"/>
			<var type="fluid dilatation"/>
			<var type="fluid rate of deformation"/>
			<var type="fluid stress"/>
			<var type="fluid velocity"/>
			<var type="fluid vorticity"/>
			<var type="nodal fluid velocity"/>
		</plotfile>
	</Output>
</febio_spec>
