<?xml version="1.0" encoding="ISO-8859-1"?>
<febio_spec version="2.5">
	<Module type="fluid"/>
	<Control>
		<time_steps>5</time_steps>
		<step_size>0.2</step_size>
		<max_refs>5</max_refs>
		<max_ups>50</max_ups>
		<diverge_reform>0</diverge_reform>
		<reform_each_time_step>0</reform_each_time_step>
		<vtol>0.001</vtol>
		<ftol>0.001</ftol>
		<etol>0.01</etol>
		<rtol>0.001</rtol>
		<lstol>0.9</lstol>
		<min_residual>0</min_residual>
		<rhoi>0</rhoi>
		<qnmethod>1</qnmethod>
		<time_stepper>
			<dtmin>0.01</dtmin>
			<dtmax>0.2</dtmax>
			<max_retries>5</max_retries>
			<opt_iter>50</opt_iter>
		</time_stepper>
		<analysis type="steady-state"/>
		<symmetric_stiffness>0</symmetric_stiffness>
		<equation_scheme>1</equation_scheme>
	</Control>
	<Globals>
		<Constants>
			<T>0</T>
			<R>0</R>
			<Fc>0</Fc>
		</Constants>
	</Globals>
	<Material>
		<material id="1" name="Material1" type="fluid">
			<density>1</density>
			<k>1e+009</k>
			<viscous type="Newtonian fluid">
				<mu>0.001</mu>
				<kappa>0</kappa>
			</viscous>
		</material>
	</Material>
	<Geometry>
		<Nodes name="Object01">
			<node id="1"> 0.0000000e+000,-1.0557107e+000,-5.5710678e-002</node>
			<node id="2"> 0.0000000e+000,-1.0574524e+000,-4.3089319e-002</node>
			<node id="3"> 0.0000000e+000,-1.0588521e+000,-2.9426068e-002</node>
			<node id="4"> 0.0000000e+000,-1.0597776e+000,-1.4944411e-002</node>
			<node id="5"> 0.0000000e+000,-1.0601041e+000, 0.0000000e+000</node>
			<node id="6"> 0.0000000e+000,-1.0597776e+000, 1.4944411e-002</node>
			<node id="7"> 0.0000000e+000,-1.0588521e+000, 2.9426068e-002</node>
			<node id="8"> 0.0000000e+000,-1.0574524e+000, 4.3089319e-002</node>
			<node id="9"> 0.0000000e+000,-1.0557107e+000, 5.5710678e-002</node>
			<node id="10"> 0.0000000e+000,-1.0430893e+000,-5.7452426e-002</node>
			<node id="11"> 0.0000000e+000,-1.0445955e+000,-4.4595509e-002</node>
			<node id="12"> 0.0000000e+000,-1.0458625e+000,-3.0575008e-002</node>
			<node id="13"> 0.0000000e+000,-1.0467441e+000,-1.5581356e-002</node>
			<node id="14"> 0.0000000e+000,-1.0470668e+000, 0.0000000e+000</node>
			<node id="15"> 0.0000000e+000,-1.0467441e+000, 1.5581356e-002</node>
			<node id="16"> 0.0000000e+000,-1.0458625e+000, 3.0575008e-002</node>
			<node id="17"> 0.0000000e+000,-1.0445955e+000, 4.4595509e-002</node>
			<node id="18"> 0.0000000e+000,-1.0430893e+000, 5.7452426e-002</node>
			<node id="19"> 0.0000000e+000,-1.0294261e+000,-5.8852137e-002</node>
			<node id="20"> 0.0000000e+000,-1.0305750e+000,-4.5862512e-002</node>
<!-- ... 8401 like lines cut -->
		</Nodes>
		<Elements type="hex8" mat="1" name="Part3">
			<elem id="1">     1,    10,    11,     2,   338,   347,   348,   339</elem>
			<elem id="2">    10,    19,    20,    11,   347,   356,   357,   348</elem>
			<elem id="3">    19,    28,    29,    20,   356,   365,   366,   357</elem>
			<elem id="4">    28,    37,    38,    29,   365,   374,   375,   366</elem>
			<elem id="5">    37,    46,    47,    38,   374,   383,   384,   375</elem>
			<elem id="6">    46,    55,    56,    47,   383,   392,   393,   384</elem>
			<elem id="7">    55,    64,    65,    56,   392,   401,   402,   393</elem>
			<elem id="8">    64,    73,    74,    65,   401,   410,   411,   402</elem>
			<elem id="9">     2,    11,    12,     3,   339,   348,   349,   340</elem>
			<elem id="10">    11,    20,    21,    12,   348,   357,   358,   349</elem>
			<elem id="11">    20,    29,    30,    21,   357,   366,   367,   358</elem>
			<elem id="12">    29,    38,    39,    30,   366,   375,   376,   367</elem>
			<elem id="13">    38,    47,    48,    39,   375,   384,   385,   376</elem>
			<elem id="14">    47,    56,    57,    48,   384,   393,   394,   385</elem>
			<elem id="15">    56,    65,    66,    57,   393,   402,   403,   394</elem>
			<elem id="16">    65,    74,    75,    66,   402,   411,   412,   403</elem>
			<elem id="17">     3,    12,    13,     4,   340,   349,   350,   341</elem>
			<elem id="18">    12,    21,    22,    13,   349,   358,   359,   350</elem>
			<elem id="19">    21,    30,    31,    22,   358,   367,   368,   359</elem>
			<elem id="20">    30,    39,    40,    31,   367,   376,   377,   368</elem>
<!-- ... 7660 like lines cut -->
		</Elements>
		<NodeSet name="FixedFluidVelocity1">
			<node id="306"/>
			<node id="307"/>
			<node id="308"/>
			<node id="309"/>
			<node id="310"/>
			<node id="311"/>
			<node id="312"/>
			<node id="313"/>
			<node id="314"/>
			<node id="315"/>
			<node id="316"/>
			<node id="317"/>
			<node id="318"/>
			<node id="319"/>
			<node id="320"/>
			<node id="321"/>
			<node id="322"/>
			<node id="323"/>
			<node id="324"/>
			<node id="325"/>
<!-- ... 652 like lines cut -->
		</NodeSet>
		<NodeSet name="FixedFluidDilatation1">
			<node id="6741"/>
			<node id="6742"/>
			<node id="6743"/>
			<node id="6744"/>
			<node id="6745"/>
			<node id="6746"/>
			<node id="6747"/>
			<node id="6748"/>
			<node id="6749"/>
			<node id="6750"/>
			<node id="6751"/>
			<node id="6752"/>
			<node id="6753"/>
			<node id="6754"/>
			<node id="6755"/>
			<node id="6756"/>
			<node id="6757"/>
			<node id="6758"/>
			<node id="6759"/>
			<node id="6760"/>
<!-- ... 381 like lines cut -->
		</NodeSet>
		<NodeSet name="PrescribedFluidDilatation1">
			<node id="1"/>
			<node id="2"/>
			<node id="3"/>
			<node id="4"/>
			<node id="5"/>
			<node id="6"/>
			<node id="7"/>
			<node id="8"/>
			<node id="9"/>
			<node id="10"/>
			<node id="11"/>
			<node id="12"/>
			<node id="13"/>
			<node id="14"/>
			<node id="15"/>
			<node id="16"/>
			<node id="17"/>
			<node id="18"/>
			<node id="19"/>
			<node id="20"/>
<!-- ... 381 like lines cut -->
		</NodeSet>
		<Surface name="FluidBackflowStabilization1">
			<quad4 id="1">  6741,  6750,  6751,  6742</quad4>
			<quad4 id="2">  6750,  6759,  6760,  6751</quad4>
			<quad4 id="3">  6759,  6768,  6769,  6760</quad4>
			<quad4 id="4">  6768,  6777,  6778,  6769</quad4>
			<quad4 id="5">  6777,  6786,  6787,  6778</quad4>
			<quad4 id="6">  6786,  6795,  6796,  6787</quad4>
			<quad4 id="7">  6795,  6804,  6805,  6796</quad4>
			<quad4 id="8">  6804,  6813,  6814,  6805</quad4>
			<quad4 id="9">  6742,  6751,  6752,  6743</quad4>
			<quad4 id="10">  6751,  6760,  6761,  6752</quad4>
			<quad4 id="11">  6760,  6769,  6770,  6761</quad4>
			<quad4 id="12">  6769,  6778,  6779,  6770</quad4>
			<quad4 id="13">  6778,  6787,  6788,  6779</quad4>
			<quad4 id="14">  6787,  6796,  6797,  6788</quad4>
			<quad4 id="15">  6796,  6805,  6806,  6797</quad4>
			<quad4 id="16">  6805,  6814,  6815,  6806</quad4>
			<quad4 id="17">  6743,  6752,  6753,  6744</quad4>
			<quad4 id="18">  6752,  6761,  6762,  6753</quad4>
			<quad4 id="19">  6761,  6770,  6771,  6762</quad4>
			<quad4 id="20">  6770,  6779,  6780,  6771</quad4>
<!-- ... 364 like lines cut -->
		</Surface>
		<Surface name="FluidTangentialStabilization1">
			<quad4 id="1">  6741,  6750,  6751,  6742</quad4>
			<quad4 id="2">  6750,  6759,  6760,  6751</quad4>
			<quad4 id="3">  6759,  6768,  6769,  6760</quad4>
			<quad4 id="4">  6768,  6777,  6778,  6769</quad4>
			<quad4 id="5">  6777,  6786,  6787,  6778</quad4>
			<quad4 id="6">  6786,  6795,  6796,  6787</quad4>
			<quad4 id="7">  6795,  6804,  6805,  6796</quad4>
			<quad4 id="8">  6804,  6813,  6814,  6805</quad4>
			<quad4 id="9">  6742,  6751,  6752,  6743</quad4>
			<quad4 id="10">  6751,  6760,  6761,  6752</quad4>
			<quad4 id="11">  6760,  6769,  6770,  6761</quad4>
			<quad4 id="12">  6769,  6778,  6779,  6770</quad4>
			<quad4 id="13">  6778,  6787,  6788,  6779</quad4>
			<quad4 id="14">  6787,  6796,  6797,  6788</quad4>
			<quad4 id="15">  6796,  6805,  6806,  6797</quad4>
			<quad4 id="16">  6805,  6814,  6815,  6806</quad4>
			<quad4 id="17">  6743,  6752,  6753,  6744</quad4>
			<quad4 id="18">  6752,  6761,  6762,  6753</quad4>
			<quad4 id="19">  6761,  6770,  6771,  6762</quad4>
			<quad4 id="20">  6770,  6779,  6780,  6771</quad4>
<!-- ... 364 like lines cut -->
		</Surface>
		<Surface name="NormalFlowConstraint1">
			<quad4 id="1">     2,    11,    10,     1</quad4>
			<quad4 id="2">    11,    20,    19,    10</quad4>
			<quad4 id="3">    20,    29,    28,    19</quad4>
			<quad4 id="4">    29,    38,    37,    28</quad4>
			<quad4 id="5">    38,    47,    46,    37</quad4>
			<quad4 id="6">    47,    56,    55,    46</quad4>
			<quad4 id="7">    56,    65,    64,    55</quad4>
			<quad4 id="8">    65,    74,    73,    64</quad4>
			<quad4 id="9">     3,    12,    11,     2</quad4>
			<quad4 id="10">    12,    21,    20,    11</quad4>
			<quad4 id="11">    21,    30,    29,    20</quad4>
			<quad4 id="12">    30,    39,    38,    29</quad4>
			<quad4 id="13">    39,    48,    47,    38</quad4>
			<quad4 id="14">    48,    57,    56,    47</quad4>
			<quad4 id="15">    57,    66,    65,    56</quad4>
			<quad4 id="16">    66,    75,    74,    65</quad4>
			<quad4 id="17">     4,    13,    12,     3</quad4>
			<quad4 id="18">    13,    22,    21,    12</quad4>
			<quad4 id="19">    22,    31,    30,    21</quad4>
			<quad4 id="20">    31,    40,    39,    30</quad4>
<!-- ... 364 like lines cut -->
		</Surface>
	</Geometry>
	<Boundary>
		<fix bc="wx,wy,wz" node_set="FixedFluidVelocity1"/>
		<fix bc="ef" node_set="FixedFluidDilatation1"/>
		<prescribe bc="ef" node_set="PrescribedFluidDilatation1">
			<scale lc="1">-5e-011</scale>
			<relative>0</relative>
		</prescribe>
	</Boundary>
	<Loads>
		<surface_load type="fluid backflow stabilization" surface="FluidBackflowStabilization1">
			<beta lc="2">1</beta>
		</surface_load>
		<surface_load type="fluid tangential stabilization" surface="FluidTangentialStabilization1">
			<beta lc="3">1</beta>
		</surface_load>
	</Loads>
	<Contact>
	</Contact>
	<Constraints>
		<constraint type="normal fluid flow" name="NormalFlowConstraint1" surface="NormalFlowConstraint1">
			<laugon>0</laugon>
			<tol>0.2</tol>
			<penalty>1e+006</penalty>
			<minaug>0</minaug>
			<maxaug>0</maxaug>
			<rhs>0</rhs>
		</constraint>
	</Constraints>
	<LoadData>
		<loadcurve id="1" type="smooth">
			<point>0,0</point>
			<point>1,1</point>
		</loadcurve>
		<loadcurve id="2" type="smooth">
			<point>0,0</point>
			<point>1,1</point>
		</loadcurve>
		<loadcurve id="3" type="smooth">
			<point>0,0</point>
			<point>1,1</point>
		</loadcurve>
	</LoadData>
	<Output>
		<plotfile type="febio">
			<var type="fluid pressure"/>
			<var type="fluid acceleration"/>
			<var type="fluid dilatation"/>
			<var type="fluid rate of deformation"/>
			<var type="fluid stress"/>
			<var type="fluid velocity"/>
			<var type="fluid volume ratio"/>
			<var type="fluid vorticity"/>
			<var type="nodal fluid velocity"/>
		</plotfile>
	</Output>
</febio_spec>
