<?xml version="1.0" encoding="ISO-8859-1"?>
<febio_spec version="2.5">
	<Module type="fluid"/>
	<Control>
		<time_steps>2</time_steps>
		<step_size>0.5</step_size>
		<max_refs>15</max_refs>
		<max_ups>0</max_ups>
		<diverge_reform>1</diverge_reform>
		<reform_each_time_step>1</reform_each_time_step>
		<vtol>0.001</vtol>
		<ftol>0.001</ftol>
		<etol>0.01</etol>
		<rtol>0</rtol>
		<lstol>0.9</lstol>
		<min_residual>1e-020</min_residual>
		<rhoi>0</rhoi>
		<qnmethod>1</qnmethod>
		<analysis type="steady-state"/>
		<symmetric_stiffness>0</symmetric_stiffness>
	</Control>
	<Globals>
		<Constants>
			<T>0</T>
			<R>0</R>
			<Fc>0</Fc>
		</Constants>
	</Globals>
	<Material>
		<material id="1" name="Material1" type="fluid">
			<density>1</density>
			<k>1e+009</k>
			<viscous type="Newtonian fluid">
				<mu>1</mu>
				<kappa>0</kappa>
			</viscous>
		</material>
	</Material>
	<Geometry>
		<Nodes name="fl35">
			<node id="1"> 0.0000000e+000, 0.0000000e+000, 0.0000000e+000</node>
			<node id="2"> 1.0000000e-001, 0.0000000e+000, 0.0000000e+000</node>
			<node id="3"> 9.8768834e-002, 1.5643446e-002, 0.0000000e+000</node>
			<node id="4"> 9.5105652e-002, 3.0901699e-002, 0.0000000e+000</node>
			<node id="5"> 8.9100653e-002, 4.5399049e-002, 0.0000000e+000</node>
			<node id="6"> 8.0901700e-002, 5.8778524e-002, 0.0000000e+000</node>
			<node id="7"> 7.0710679e-002, 7.0710677e-002, 0.0000000e+000</node>
			<node id="8"> 5.8778527e-002, 8.0901698e-002, 0.0000000e+000</node>
			<node id="9"> 4.5399052e-002, 8.9100652e-002, 0.0000000e+000</node>
			<node id="10"> 3.0901701e-002, 9.5105651e-002, 0.0000000e+000</node>
			<node id="11"> 1.5643449e-002, 9.8768834e-002, 0.0000000e+000</node>
			<node id="12"> 2.6794897e-009, 1.0000000e-001, 0.0000000e+000</node>
			<node id="13">-1.5643444e-002, 9.8768835e-002, 0.0000000e+000</node>
			<node id="14">-3.0901696e-002, 9.5105653e-002, 0.0000000e+000</node>
			<node id="15">-4.5399047e-002, 8.9100654e-002, 0.0000000e+000</node>
			<node id="16">-5.8778522e-002, 8.0901702e-002, 0.0000000e+000</node>
			<node id="17">-7.0710675e-002, 7.0710681e-002, 0.0000000e+000</node>
			<node id="18">-8.0901697e-002, 5.8778529e-002, 0.0000000e+000</node>
			<node id="19">-8.9100650e-002, 4.5399054e-002, 0.0000000e+000</node>
			<node id="20">-9.5105650e-002, 3.0901704e-002, 0.0000000e+000</node>
<!-- ... 8401 like lines cut -->
		</Nodes>
		<Elements type="penta6" mat="1" name="Part4">
			<elem id="1">     1,     2,     3,   402,   403,   404</elem>
			<elem id="2">     1,     3,     4,   402,   404,   405</elem>
			<elem id="3">     1,     4,     5,   402,   405,   406</elem>
			<elem id="4">     1,     5,     6,   402,   406,   407</elem>
			<elem id="5">     1,     6,     7,   402,   407,   408</elem>
			<elem id="6">     1,     7,     8,   402,   408,   409</elem>
			<elem id="7">     1,     8,     9,   402,   409,   410</elem>
			<elem id="8">     1,     9,    10,   402,   410,   411</elem>
			<elem id="9">     1,    10,    11,   402,   411,   412</elem>
			<elem id="10">     1,    11,    12,   402,   412,   413</elem>
			<elem id="11">     1,    12,    13,   402,   413,   414</elem>
			<elem id="12">     1,    13,    14,   402,   414,   415</elem>
			<elem id="13">     1,    14,    15,   402,   415,   416</elem>
			<elem id="14">     1,    15,    16,   402,   416,   417</elem>
			<elem id="15">     1,    16,    17,   402,   417,   418</elem>
			<elem id="16">     1,    17,    18,   402,   418,   419</elem>
			<elem id="17">     1,    18,    19,   402,   419,   420</elem>
			<elem id="18">     1,    19,    20,   402,   420,   421</elem>
			<elem id="19">     1,    20,    21,   402,   421,   422</elem>
			<elem id="20">     1,    21,    22,   402,   422,   423</elem>
<!-- ... 780 like lines cut -->
		</Elements>
		<Elements type="hex8" mat="1" name="Part4">
			<elem id="801">     2,    42,    43,     3,   403,   443,   444,   404</elem>
			<elem id="802">     3,    43,    44,     4,   404,   444,   445,   405</elem>
			<elem id="803">     4,    44,    45,     5,   405,   445,   446,   406</elem>
			<elem id="804">     5,    45,    46,     6,   406,   446,   447,   407</elem>
			<elem id="805">     6,    46,    47,     7,   407,   447,   448,   408</elem>
			<elem id="806">     7,    47,    48,     8,   408,   448,   449,   409</elem>
			<elem id="807">     8,    48,    49,     9,   409,   449,   450,   410</elem>
			<elem id="808">     9,    49,    50,    10,   410,   450,   451,   411</elem>
			<elem id="809">    10,    50,    51,    11,   411,   451,   452,   412</elem>
			<elem id="810">    11,    51,    52,    12,   412,   452,   453,   413</elem>
			<elem id="811">    12,    52,    53,    13,   413,   453,   454,   414</elem>
			<elem id="812">    13,    53,    54,    14,   414,   454,   455,   415</elem>
			<elem id="813">    14,    54,    55,    15,   415,   455,   456,   416</elem>
			<elem id="814">    15,    55,    56,    16,   416,   456,   457,   417</elem>
			<elem id="815">    16,    56,    57,    17,   417,   457,   458,   418</elem>
			<elem id="816">    17,    57,    58,    18,   418,   458,   459,   419</elem>
			<elem id="817">    18,    58,    59,    19,   419,   459,   460,   420</elem>
			<elem id="818">    19,    59,    60,    20,   420,   460,   461,   421</elem>
			<elem id="819">    20,    60,    61,    21,   421,   461,   462,   422</elem>
			<elem id="820">    21,    61,    62,    22,   422,   462,   463,   423</elem>
<!-- ... 7180 like lines cut -->
		</Elements>
		<NodeSet name="FixedFluidVelocity01">
			<node id="1"/>
			<node id="2"/>
			<node id="3"/>
			<node id="4"/>
			<node id="5"/>
			<node id="6"/>
			<node id="7"/>
			<node id="8"/>
			<node id="9"/>
			<node id="10"/>
			<node id="11"/>
			<node id="12"/>
			<node id="13"/>
			<node id="14"/>
			<node id="15"/>
			<node id="16"/>
			<node id="17"/>
			<node id="18"/>
			<node id="19"/>
			<node id="20"/>
<!-- ... 381 like lines cut -->
		</NodeSet>
		<Surface name="FluidRotationalVelocity1">
			<tri3 id="1">  8021,  8022,  8023</tri3>
			<quad4 id="2">  8022,  8062,  8063,  8023</quad4>
			<quad4 id="3">  8062,  8102,  8103,  8063</quad4>
			<quad4 id="4">  8102,  8142,  8143,  8103</quad4>
			<quad4 id="5">  8142,  8182,  8183,  8143</quad4>
			<quad4 id="6">  8182,  8222,  8223,  8183</quad4>
			<quad4 id="7">  8222,  8262,  8263,  8223</quad4>
			<quad4 id="8">  8262,  8302,  8303,  8263</quad4>
			<quad4 id="9">  8302,  8342,  8343,  8303</quad4>
			<quad4 id="10">  8342,  8382,  8383,  8343</quad4>
			<tri3 id="11">  8021,  8023,  8024</tri3>
			<quad4 id="12">  8023,  8063,  8064,  8024</quad4>
			<quad4 id="13">  8063,  8103,  8104,  8064</quad4>
			<quad4 id="14">  8103,  8143,  8144,  8104</quad4>
			<quad4 id="15">  8143,  8183,  8184,  8144</quad4>
			<quad4 id="16">  8183,  8223,  8224,  8184</quad4>
			<quad4 id="17">  8223,  8263,  8264,  8224</quad4>
			<quad4 id="18">  8263,  8303,  8304,  8264</quad4>
			<quad4 id="19">  8303,  8343,  8344,  8304</quad4>
			<quad4 id="20">  8343,  8383,  8384,  8344</quad4>
			<tri3 id="21">  8021,  8024,  8025</tri3>
			<quad4 id="22">  8024,  8064,  8065,  8025</quad4>
			<quad4 id="23">  8064,  8104,  8105,  8065</quad4>
			<quad4 id="24">  8104,  8144,  8145,  8105</quad4>
			<quad4 id="25">  8144,  8184,  8185,  8145</quad4>
			<quad4 id="26">  8184,  8224,  8225,  8185</quad4>
			<quad4 id="27">  8224,  8264,  8265,  8225</quad4>
			<quad4 id="28">  8264,  8304,  8305,  8265</quad4>
			<quad4 id="29">  8304,  8344,  8345,  8305</quad4>
			<quad4 id="30">  8344,  8384,  8385,  8345</quad4>
			<tri3 id="31">  8021,  8025,  8026</tri3>
			<quad4 id="32">  8025,  8065,  8066,  8026</quad4>
			<quad4 id="33">  8065,  8105,  8106,  8066</quad4>
			<quad4 id="34">  8105,  8145,  8146,  8106</quad4>
			<quad4 id="35">  8145,  8185,  8186,  8146</quad4>
			<quad4 id="36">  8185,  8225,  8226,  8186</quad4>
			<quad4 id="37">  8225,  8265,  8266,  8226</quad4>
			<quad4 id="38">  8265,  8305,  8306,  8266</quad4>
			<quad4 id="39">  8305,  8345,  8346,  8306</quad4>
			<quad4 id="40">  8345,  8385,  8386,  8346</quad4>
			<tri3 id="41">  8021,  8026,  8027</tri3>
			<quad4 id="42">  8026,  8066,  8067,  8027</quad4>
			<quad4 id="43">  8066,  8106,  8107,  8067</quad4>
			<quad4 id="44">  8106,  8146,  8147,  8107</quad4>
			<quad4 id="45">  8146,  8186,  8187,  8147</quad4>
			<quad4 id="46">  8186,  8226,  8227,  8187</quad4>
			<quad4 id="47">  8226,  8266,  8267,  8227</quad4>
			<quad4 id="48">  8266,  8306,  8307,  8267</quad4>
			<quad4 id="49">  8306,  8346,  8347,  8307</quad4>
			<quad4 id="50">  8346,  8386,  8387,  8347</quad4>
			<tri3 id="51">  8021,  8027,  8028</tri3>
			<quad4 id="52">  8027,  8067,  8068,  8028</quad4>
			<quad4 id="53">  8067,  8107,  8108,  8068</quad4>
			<quad4 id="54">  8107,  8147,  8148,  8108</quad4>
			<quad4 id="55">  8147,  8187,  8188,  8148</quad4>
			<quad4 id="56">  8187,  8227,  8228,  8188</quad4>
			<quad4 id="57">  8227,  8267,  8268,  8228</quad4>
			<quad4 id="58">  8267,  8307,  8308,  8268</quad4>
			<quad4 id="59">  8307,  8347,  8348,  8308</quad4>
			<quad4 id="60">  8347,  8387,  8388,  8348</quad4>
			<tri3 id="61">  8021,  8028,  8029</tri3>
			<quad4 id="62">  8028,  8068,  8069,  8029</quad4>
			<quad4 id="63">  8068,  8108,  8109,  8069</quad4>
			<quad4 id="64">  8108,  8148,  8149,  8109</quad4>
			<quad4 id="65">  8148,  8188,  8189,  8149</quad4>
			<quad4 id="66">  8188,  8228,  8229,  8189</quad4>
			<quad4 id="67">  8228,  8268,  8269,  8229</quad4>
			<quad4 id="68">  8268,  8308,  8309,  8269</quad4>
			<quad4 id="69">  8308,  8348,  8349,  8309</quad4>
			<quad4 id="70">  8348,  8388,  8389,  8349</quad4>
			<tri3 id="71">  8021,  8029,  8030</tri3>
			<quad4 id="72">  8029,  8069,  8070,  8030</quad4>
			<quad4 id="73">  8069,  8109,  8110,  8070</quad4>
			<quad4 id="74">  8109,  8149,  8150,  8110</quad4>
			<quad4 id="75">  8149,  8189,  8190,  8150</quad4>
			<quad4 id="76">  8189,  8229,  8230,  8190</quad4>
			<quad4 id="77">  8229,  8269,  8270,  8230</quad4>
			<quad4 id="78">  8269,  8309,  8310,  8270</quad4>
			<quad4 id="79">  8309,  8349,  8350,  8310</quad4>
			<quad4 id="80">  8349,  8389,  8390,  8350</quad4>
			<tri3 id="81">  8021,  8030,  8031</tri3>
			<quad4 id="82">  8030,  8070,  8071,  8031</quad4>
			<quad4 id="83">  8070,  8110,  8111,  8071</quad4>
			<quad4 id="84">  8110,  8150,  8151,  8111</quad4>
			<quad4 id="85">  8150,  8190,  8191,  8151</quad4>
			<quad4 id="86">  8190,  8230,  8231,  8191</quad4>
			<quad4 id="87">  8230,  8270,  8271,  8231</quad4>
			<quad4 id="88">  8270,  8310,  8311,  8271</quad4>
			<quad4 id="89">  8310,  8350,  8351,  8311</quad4>
			<quad4 id="90">  8350,  8390,  8391,  8351</quad4>
			<tri3 id="91">  8021,  8031,  8032</tri3>
			<quad4 id="92">  8031,  8071,  8072,  8032</quad4>
			<quad4 id="93">  8071,  8111,  8112,  8072</quad4>
			<quad4 id="94">  8111,  8151,  8152,  8112</quad4>
			<quad4 id="95">  8151,  8191,  8192,  8152</quad4>
			<quad4 id="96">  8191,  8231,  8232,  8192</quad4>
			<quad4 id="97">  8231,  8271,  8272,  8232</quad4>
			<quad4 id="98">  8271,  8311,  8312,  8272</quad4>
			<quad4 id="99">  8311,  8351,  8352,  8312</quad4>
			<quad4 id="100">  8351,  8391,  8392,  8352</quad4>
			<tri3 id="101">  8021,  8032,  8033</tri3>
			<quad4 id="102">  8032,  8072,  8073,  8033</quad4>
			<quad4 id="103">  8072,  8112,  8113,  8073</quad4>
			<quad4 id="104">  8112,  8152,  8153,  8113</quad4>
			<quad4 id="105">  8152,  8192,  8193,  8153</quad4>
			<quad4 id="106">  8192,  8232,  8233,  8193</quad4>
			<quad4 id="107">  8232,  8272,  8273,  8233</quad4>
			<quad4 id="108">  8272,  8312,  8313,  8273</quad4>
			<quad4 id="109">  8312,  8352,  8353,  8313</quad4>
			<quad4 id="110">  8352,  8392,  8393,  8353</quad4>
			<tri3 id="111">  8021,  8033,  8034</tri3>
			<quad4 id="112">  8033,  8073,  8074,  8034</quad4>
			<quad4 id="113">  8073,  8113,  8114,  8074</quad4>
			<quad4 id="114">  8113,  8153,  8154,  8114</quad4>
			<quad4 id="115">  8153,  8193,  8194,  8154</quad4>
			<quad4 id="116">  8193,  8233,  8234,  8194</quad4>
			<quad4 id="117">  8233,  8273,  8274,  8234</quad4>
			<quad4 id="118">  8273,  8313,  8314,  8274</quad4>
			<quad4 id="119">  8313,  8353,  8354,  8314</quad4>
			<quad4 id="120">  8353,  8393,  8394,  8354</quad4>
			<tri3 id="121">  8021,  8034,  8035</tri3>
			<quad4 id="122">  8034,  8074,  8075,  8035</quad4>
			<quad4 id="123">  8074,  8114,  8115,  8075</quad4>
			<quad4 id="124">  8114,  8154,  8155,  8115</quad4>
			<quad4 id="125">  8154,  8194,  8195,  8155</quad4>
			<quad4 id="126">  8194,  8234,  8235,  8195</quad4>
			<quad4 id="127">  8234,  8274,  8275,  8235</quad4>
			<quad4 id="128">  8274,  8314,  8315,  8275</quad4>
			<quad4 id="129">  8314,  8354,  8355,  8315</quad4>
			<quad4 id="130">  8354,  8394,  8395,  8355</quad4>
			<tri3 id="131">  8021,  8035,  8036</tri3>
			<quad4 id="132">  8035,  8075,  8076,  8036</quad4>
			<quad4 id="133">  8075,  8115,  8116,  8076</quad4>
			<quad4 id="134">  8115,  8155,  8156,  8116</quad4>
			<quad4 id="135">  8155,  8195,  8196,  8156</quad4>
			<quad4 id="136">  8195,  8235,  8236,  8196</quad4>
			<quad4 id="137">  8235,  8275,  8276,  8236</quad4>
			<quad4 id="138">  8275,  8315,  8316,  8276</quad4>
			<quad4 id="139">  8315,  8355,  8356,  8316</quad4>
			<quad4 id="140">  8355,  8395,  8396,  8356</quad4>
			<tri3 id="141">  8021,  8036,  8037</tri3>
			<quad4 id="142">  8036,  8076,  8077,  8037</quad4>
			<quad4 id="143">  8076,  8116,  8117,  8077</quad4>
			<quad4 id="144">  8116,  8156,  8157,  8117</quad4>
			<quad4 id="145">  8156,  8196,  8197,  8157</quad4>
			<quad4 id="146">  8196,  8236,  8237,  8197</quad4>
			<quad4 id="147">  8236,  8276,  8277,  8237</quad4>
			<quad4 id="148">  8276,  8316,  8317,  8277</quad4>
			<quad4 id="149">  8316,  8356,  8357,  8317</quad4>
			<quad4 id="150">  8356,  8396,  8397,  8357</quad4>
			<tri3 id="151">  8021,  8037,  8038</tri3>
			<quad4 id="152">  8037,  8077,  8078,  8038</quad4>
			<quad4 id="153">  8077,  8117,  8118,  8078</quad4>
			<quad4 id="154">  8117,  8157,  8158,  8118</quad4>
			<quad4 id="155">  8157,  8197,  8198,  8158</quad4>
			<quad4 id="156">  8197,  8237,  8238,  8198</quad4>
			<quad4 id="157">  8237,  8277,  8278,  8238</quad4>
			<quad4 id="158">  8277,  8317,  8318,  8278</quad4>
			<quad4 id="159">  8317,  8357,  8358,  8318</quad4>
			<quad4 id="160">  8357,  8397,  8398,  8358</quad4>
			<tri3 id="161">  8021,  8038,  8039</tri3>
			<quad4 id="162">  8038,  8078,  8079,  8039</quad4>
			<quad4 id="163">  8078,  8118,  8119,  8079</quad4>
			<quad4 id="164">  8118,  8158,  8159,  8119</quad4>
			<quad4 id="165">  8158,  8198,  8199,  8159</quad4>
			<quad4 id="166">  8198,  8238,  8239,  8199</quad4>
			<quad4 id="167">  8238,  8278,  8279,  8239</quad4>
			<quad4 id="168">  8278,  8318,  8319,  8279</quad4>
			<quad4 id="169">  8318,  8358,  8359,  8319</quad4>
			<quad4 id="170">  8358,  8398,  8399,  8359</quad4>
			<tri3 id="171">  8021,  8039,  8040</tri3>
			<quad4 id="172">  8039,  8079,  8080,  8040</quad4>
			<quad4 id="173">  8079,  8119,  8120,  8080</quad4>
			<quad4 id="174">  8119,  8159,  8160,  8120</quad4>
			<quad4 id="175">  8159,  8199,  8200,  8160</quad4>
			<quad4 id="176">  8199,  8239,  8240,  8200</quad4>
			<quad4 id="177">  8239,  8279,  8280,  8240</quad4>
			<quad4 id="178">  8279,  8319,  8320,  8280</quad4>
			<quad4 id="179">  8319,  8359,  8360,  8320</quad4>
			<quad4 id="180">  8359,  8399,  8400,  8360</quad4>
			<tri3 id="181">  8021,  8040,  8041</tri3>
			<quad4 id="182">  8040,  8080,  8081,  8041</quad4>
			<quad4 id="183">  8080,  8120,  8121,  8081</quad4>
			<quad4 id="184">  8120,  8160,  8161,  8121</quad4>
			<quad4 id="185">  8160,  8200,  8201,  8161</quad4>
			<quad4 id="186">  8200,  8240,  8241,  8201</quad4>
			<quad4 id="187">  8240,  8280,  8281,  8241</quad4>
			<quad4 id="188">  8280,  8320,  8321,  8281</quad4>
			<quad4 id="189">  8320,  8360,  8361,  8321</quad4>
			<quad4 id="190">  8360,  8400,  8401,  8361</quad4>
			<tri3 id="191">  8021,  8041,  8042</tri3>
			<quad4 id="192">  8041,  8081,  8082,  8042</quad4>
			<quad4 id="193">  8081,  8121,  8122,  8082</quad4>
			<quad4 id="194">  8121,  8161,  8162,  8122</quad4>
			<quad4 id="195">  8161,  8201,  8202,  8162</quad4>
			<quad4 id="196">  8201,  8241,  8242,  8202</quad4>
			<quad4 id="197">  8241,  8281,  8282,  8242</quad4>
			<quad4 id="198">  8281,  8321,  8322,  8282</quad4>
			<quad4 id="199">  8321,  8361,  8362,  8322</quad4>
			<quad4 id="200">  8361,  8401,  8402,  8362</quad4>
			<tri3 id="201">  8021,  8042,  8043</tri3>
			<quad4 id="202">  8042,  8082,  8083,  8043</quad4>
			<quad4 id="203">  8082,  8122,  8123,  8083</quad4>
			<quad4 id="204">  8122,  8162,  8163,  8123</quad4>
			<quad4 id="205">  8162,  8202,  8203,  8163</quad4>
			<quad4 id="206">  8202,  8242,  8243,  8203</quad4>
			<quad4 id="207">  8242,  8282,  8283,  8243</quad4>
			<quad4 id="208">  8282,  8322,  8323,  8283</quad4>
			<quad4 id="209">  8322,  8362,  8363,  8323</quad4>
			<quad4 id="210">  8362,  8402,  8403,  8363</quad4>
			<tri3 id="211">  8021,  8043,  8044</tri3>
			<quad4 id="212">  8043,  8083,  8084,  8044</quad4>
			<quad4 id="213">  8083,  8123,  8124,  8084</quad4>
			<quad4 id="214">  8123,  8163,  8164,  8124</quad4>
			<quad4 id="215">  8163,  8203,  8204,  8164</quad4>
			<quad4 id="216">  8203,  8243,  8244,  8204</quad4>
			<quad4 id="217">  8243,  8283,  8284,  8244</quad4>
			<quad4 id="218">  8283,  8323,  8324,  8284</quad4>
			<quad4 id="219">  8323,  8363,  8364,  8324</quad4>
			<quad4 id="220">  8363,  8403,  8404,  8364</quad4>
			<tri3 id="221">  8021,  8044,  8045</tri3>
			<quad4 id="222">  8044,  8084,  8085,  8045</quad4>
			<quad4 id="223">  8084,  8124,  8125,  8085</quad4>
			<quad4 id="224">  8124,  8164,  8165,  8125</quad4>
			<quad4 id="225">  8164,  8204,  8205,  8165</quad4>
			<quad4 id="226">  8204,  8244,  8245,  8205</quad4>
			<quad4 id="227">  8244,  8284,  8285,  8245</quad4>
			<quad4 id="228">  8284,  8324,  8325,  8285</quad4>
			<quad4 id="229">  8324,  8364,  8365,  8325</quad4>
			<quad4 id="230">  8364,  8404,  8405,  8365</quad4>
			<tri3 id="231">  8021,  8045,  8046</tri3>
			<quad4 id="232">  8045,  8085,  8086,  8046</quad4>
			<quad4 id="233">  8085,  8125,  8126,  8086</quad4>
			<quad4 id="234">  8125,  8165,  8166,  8126</quad4>
			<quad4 id="235">  8165,  8205,  8206,  8166</quad4>
			<quad4 id="236">  8205,  8245,  8246,  8206</quad4>
			<quad4 id="237">  8245,  8285,  8286,  8246</quad4>
			<quad4 id="238">  8285,  8325,  8326,  8286</quad4>
			<quad4 id="239">  8325,  8365,  8366,  8326</quad4>
			<quad4 id="240">  8365,  8405,  8406,  8366</quad4>
			<tri3 id="241">  8021,  8046,  8047</tri3>
			<quad4 id="242">  8046,  8086,  8087,  8047</quad4>
			<quad4 id="243">  8086,  8126,  8127,  8087</quad4>
			<quad4 id="244">  8126,  8166,  8167,  8127</quad4>
			<quad4 id="245">  8166,  8206,  8207,  8167</quad4>
			<quad4 id="246">  8206,  8246,  8247,  8207</quad4>
			<quad4 id="247">  8246,  8286,  8287,  8247</quad4>
			<quad4 id="248">  8286,  8326,  8327,  8287</quad4>
			<quad4 id="249">  8326,  8366,  8367,  8327</quad4>
			<quad4 id="250">  8366,  8406,  8407,  8367</quad4>
			<tri3 id="251">  8021,  8047,  8048</tri3>
			<quad4 id="252">  8047,  8087,  8088,  8048</quad4>
			<quad4 id="253">  8087,  8127,  8128,  8088</quad4>
			<quad4 id="254">  8127,  8167,  8168,  8128</quad4>
			<quad4 id="255">  8167,  8207,  8208,  8168</quad4>
			<quad4 id="256">  8207,  8247,  8248,  8208</quad4>
			<quad4 id="257">  8247,  8287,  8288,  8248</quad4>
			<quad4 id="258">  8287,  8327,  8328,  8288</quad4>
			<quad4 id="259">  8327,  8367,  8368,  8328</quad4>
			<quad4 id="260">  8367,  8407,  8408,  8368</quad4>
			<tri3 id="261">  8021,  8048,  8049</tri3>
			<quad4 id="262">  8048,  8088,  8089,  8049</quad4>
			<quad4 id="263">  8088,  8128,  8129,  8089</quad4>
			<quad4 id="264">  8128,  8168,  8169,  8129</quad4>
			<quad4 id="265">  8168,  8208,  8209,  8169</quad4>
			<quad4 id="266">  8208,  8248,  8249,  8209</quad4>
			<quad4 id="267">  8248,  8288,  8289,  8249</quad4>
			<quad4 id="268">  8288,  8328,  8329,  8289</quad4>
			<quad4 id="269">  8328,  8368,  8369,  8329</quad4>
			<quad4 id="270">  8368,  8408,  8409,  8369</quad4>
			<tri3 id="271">  8021,  8049,  8050</tri3>
			<quad4 id="272">  8049,  8089,  8090,  8050</quad4>
			<quad4 id="273">  8089,  8129,  8130,  8090</quad4>
			<quad4 id="274">  8129,  8169,  8170,  8130</quad4>
			<quad4 id="275">  8169,  8209,  8210,  8170</quad4>
			<quad4 id="276">  8209,  8249,  8250,  8210</quad4>
			<quad4 id="277">  8249,  8289,  8290,  8250</quad4>
			<quad4 id="278">  8289,  8329,  8330,  8290</quad4>
			<quad4 id="279">  8329,  8369,  8370,  8330</quad4>
			<quad4 id="280">  8369,  8409,  8410,  8370</quad4>
			<tri3 id="281">  8021,  8050,  8051</tri3>
			<quad4 id="282">  8050,  8090,  8091,  8051</quad4>
			<quad4 id="283">  8090,  8130,  8131,  8091</quad4>
			<quad4 id="284">  8130,  8170,  8171,  8131</quad4>
			<quad4 id="285">  8170,  8210,  8211,  8171</quad4>
			<quad4 id="286">  8210,  8250,  8251,  8211</quad4>
			<quad4 id="287">  8250,  8290,  8291,  8251</quad4>
			<quad4 id="288">  8290,  8330,  8331,  8291</quad4>
			<quad4 id="289">  8330,  8370,  8371,  8331</quad4>
			<quad4 id="290">  8370,  8410,  8411,  8371</quad4>
			<tri3 id="291">  8021,  8051,  8052</tri3>
			<quad4 id="292">  8051,  8091,  8092,  8052</quad4>
			<quad4 id="293">  8091,  8131,  8132,  8092</quad4>
			<quad4 id="294">  8131,  8171,  8172,  8132</quad4>
			<quad4 id="295">  8171,  8211,  8212,  8172</quad4>
			<quad4 id="296">  8211,  8251,  8252,  8212</quad4>
			<quad4 id="297">  8251,  8291,  8292,  8252</quad4>
			<quad4 id="298">  8291,  8331,  8332,  8292</quad4>
			<quad4 id="299">  8331,  8371,  8372,  8332</quad4>
			<quad4 id="300">  8371,  8411,  8412,  8372</quad4>
			<tri3 id="301">  8021,  8052,  8053</tri3>
			<quad4 id="302">  8052,  8092,  8093,  8053</quad4>
			<quad4 id="303">  8092,  8132,  8133,  8093</quad4>
			<quad4 id="304">  8132,  8172,  8173,  8133</quad4>
			<quad4 id="305">  8172,  8212,  8213,  8173</quad4>
			<quad4 id="306">  8212,  8252,  8253,  8213</quad4>
			<quad4 id="307">  8252,  8292,  8293,  8253</quad4>
			<quad4 id="308">  8292,  8332,  8333,  8293</quad4>
			<quad4 id="309">  8332,  8372,  8373,  8333</quad4>
			<quad4 id="310">  8372,  8412,  8413,  8373</quad4>
			<tri3 id="311">  8021,  8053,  8054</tri3>
			<quad4 id="312">  8053,  8093,  8094,  8054</quad4>
			<quad4 id="313">  8093,  8133,  8134,  8094</quad4>
			<quad4 id="314">  8133,  8173,  8174,  8134</quad4>
			<quad4 id="315">  8173,  8213,  8214,  8174</quad4>
			<quad4 id="316">  8213,  8253,  8254,  8214</quad4>
			<quad4 id="317">  8253,  8293,  8294,  8254</quad4>
			<quad4 id="318">  8293,  8333,  8334,  8294</quad4>
			<quad4 id="319">  8333,  8373,  8374,  8334</quad4>
			<quad4 id="320">  8373,  8413,  8414,  8374</quad4>
			<tri3 id="321">  8021,  8054,  8055</tri3>
			<quad4 id="322">  8054,  8094,  8095,  8055</quad4>
			<quad4 id="323">  8094,  8134,  8135,  8095</quad4>
			<quad4 id="324">  8134,  8174,  8175,  8135</quad4>
			<quad4 id="325">  8174,  8214,  8215,  8175</quad4>
			<quad4 id="326">  8214,  8254,  8255,  8215</quad4>
			<quad4 id="327">  8254,  8294,  8295,  8255</quad4>
			<quad4 id="328">  8294,  8334,  8335,  8295</quad4>
			<quad4 id="329">  8334,  8374,  8375,  8335</quad4>
			<quad4 id="330">  8374,  8414,  8415,  8375</quad4>
			<tri3 id="331">  8021,  8055,  8056</tri3>
			<quad4 id="332">  8055,  8095,  8096,  8056</quad4>
			<quad4 id="333">  8095,  8135,  8136,  8096</quad4>
			<quad4 id="334">  8135,  8175,  8176,  8136</quad4>
			<quad4 id="335">  8175,  8215,  8216,  8176</quad4>
			<quad4 id="336">  8215,  8255,  8256,  8216</quad4>
			<quad4 id="337">  8255,  8295,  8296,  8256</quad4>
			<quad4 id="338">  8295,  8335,  8336,  8296</quad4>
			<quad4 id="339">  8335,  8375,  8376,  8336</quad4>
			<quad4 id="340">  8375,  8415,  8416,  8376</quad4>
			<tri3 id="341">  8021,  8056,  8057</tri3>
			<quad4 id="342">  8056,  8096,  8097,  8057</quad4>
			<quad4 id="343">  8096,  8136,  8137,  8097</quad4>
			<quad4 id="344">  8136,  8176,  8177,  8137</quad4>
			<quad4 id="345">  8176,  8216,  8217,  8177</quad4>
			<quad4 id="346">  8216,  8256,  8257,  8217</quad4>
			<quad4 id="347">  8256,  8296,  8297,  8257</quad4>
			<quad4 id="348">  8296,  8336,  8337,  8297</quad4>
			<quad4 id="349">  8336,  8376,  8377,  8337</quad4>
			<quad4 id="350">  8376,  8416,  8417,  8377</quad4>
			<tri3 id="351">  8021,  8057,  8058</tri3>
			<quad4 id="352">  8057,  8097,  8098,  8058</quad4>
			<quad4 id="353">  8097,  8137,  8138,  8098</quad4>
			<quad4 id="354">  8137,  8177,  8178,  8138</quad4>
			<quad4 id="355">  8177,  8217,  8218,  8178</quad4>
			<quad4 id="356">  8217,  8257,  8258,  8218</quad4>
			<quad4 id="357">  8257,  8297,  8298,  8258</quad4>
			<quad4 id="358">  8297,  8337,  8338,  8298</quad4>
			<quad4 id="359">  8337,  8377,  8378,  8338</quad4>
			<quad4 id="360">  8377,  8417,  8418,  8378</quad4>
			<tri3 id="361">  8021,  8058,  8059</tri3>
			<quad4 id="362">  8058,  8098,  8099,  8059</quad4>
			<quad4 id="363">  8098,  8138,  8139,  8099</quad4>
			<quad4 id="364">  8138,  8178,  8179,  8139</quad4>
			<quad4 id="365">  8178,  8218,  8219,  8179</quad4>
			<quad4 id="366">  8218,  8258,  8259,  8219</quad4>
			<quad4 id="367">  8258,  8298,  8299,  8259</quad4>
			<quad4 id="368">  8298,  8338,  8339,  8299</quad4>
			<quad4 id="369">  8338,  8378,  8379,  8339</quad4>
			<quad4 id="370">  8378,  8418,  8419,  8379</quad4>
			<tri3 id="371">  8021,  8059,  8060</tri3>
			<quad4 id="372">  8059,  8099,  8100,  8060</quad4>
			<quad4 id="373">  8099,  8139,  8140,  8100</quad4>
			<quad4 id="374">  8139,  8179,  8180,  8140</quad4>
			<quad4 id="375">  8179,  8219,  8220,  8180</quad4>
			<quad4 id="376">  8219,  8259,  8260,  8220</quad4>
			<quad4 id="377">  8259,  8299,  8300,  8260</quad4>
			<quad4 id="378">  8299,  8339,  8340,  8300</quad4>
			<quad4 id="379">  8339,  8379,  8380,  8340</quad4>
			<quad4 id="380">  8379,  8419,  8420,  8380</quad4>
			<tri3 id="381">  8021,  8060,  8061</tri3>
			<quad4 id="382">  8060,  8100,  8101,  8061</quad4>
			<quad4 id="383">  8100,  8140,  8141,  8101</quad4>
			<quad4 id="384">  8140,  8180,  8181,  8141</quad4>
			<quad4 id="385">  8180,  8220,  8221,  8181</quad4>
			<quad4 id="386">  8220,  8260,  8261,  8221</quad4>
			<quad4 id="387">  8260,  8300,  8301,  8261</quad4>
			<quad4 id="388">  8300,  8340,  8341,  8301</quad4>
			<quad4 id="389">  8340,  8380,  8381,  8341</quad4>
			<quad4 id="390">  8380,  8420,  8421,  8381</quad4>
			<tri3 id="391">  8021,  8061,  8022</tri3>
			<quad4 id="392">  8061,  8101,  8062,  8022</quad4>
			<quad4 id="393">  8101,  8141,  8102,  8062</quad4>
			<quad4 id="394">  8141,  8181,  8142,  8102</quad4>
			<quad4 id="395">  8181,  8221,  8182,  8142</quad4>
			<quad4 id="396">  8221,  8261,  8222,  8182</quad4>
			<quad4 id="397">  8261,  8301,  8262,  8222</quad4>
			<quad4 id="398">  8301,  8341,  8302,  8262</quad4>
			<quad4 id="399">  8341,  8381,  8342,  8302</quad4>
			<quad4 id="400">  8381,  8421,  8382,  8342</quad4>
		</Surface>
	</Geometry>
	<Boundary>
		<fix bc="wx,wy,wz" node_set="FixedFluidVelocity01"/>
	</Boundary>
	<Loads>
		<surface_load type="fluid rotational velocity" surface="FluidRotationalVelocity1">
			<angular_speed lc="1">1</angular_speed>
			<axis>0,0,1</axis>
			<origin>0,0,0</origin>
		</surface_load>
	</Loads>
	<LoadData>
		<loadcurve id="1" type="smooth">
			<point>0,0</point>
			<point>1,1</point>
		</loadcurve>
	</LoadData>
	<Output>
		<plotfile type="febio">
			<var type="displacement"/>
			<var type="velocity"/>
			<var type="fluid pressure"/>
			<var type="fluid acceleration"/>
			<var type="fluid dilatation"/>
			<var type="fluid rate of deformation"/>
			<var type="fluid stress"/>
			<var type="fluid velocity"/>
			<var type="fluid vorticity"/>
			<var type="nodal fluid velocity"/>
		</plotfile>
	</Output>
</febio_spec>
