<?xml version="1.0" encoding="ISO-8859-1"?>
<!--
Problem Description:
	Free surface wave problem with body load and inviscid
	fluid. Rhoi of 0. Newtonian fluid. Moving boundary
Main Features:
        moving boundary
        free surface
	prescribed/fixed ef
	body load
Secondary Features:
	Broyden
	No diverge ref
	No ref each step
Materials:
        Newtonian Fluid
Degrees of Freedom: 4206
Results:
	Steps Completed: 161
	Equilibrium Iterations: 1651
	Right Hand Evaluations: 2178
	Stiffness Reformations: 30
	Other:
		The y-displacement is 0.461658 at time 286.2
		for node 810
Comments:
        Problem from Hughes et al. CMAME, 1981.
-->
<febio_spec version="2.5">
	<Module type="fluid-FSI"/>
	<Control>
		<time_steps>160</time_steps>
		<step_size>1.7888</step_size>
		<max_refs>5</max_refs>
		<qnmethod>2</qnmethod>
		<max_ups>50</max_ups>
		<dtol>0.001</dtol>
		<vtol>0.001</vtol>
		<ftol>0.001</ftol>
		<etol>0.01</etol>
		<rtol>0.001</rtol>
		<rhoi>0</rhoi>
		<lstol>0.9</lstol>
		<diverge_reform>0</diverge_reform>
		<reform_each_time_step>0</reform_each_time_step>
		<time_stepper>
			<dtmin>0.01</dtmin>
			<dtmax>1.77888</dtmax>
			<max_retries>5</max_retries>
			<opt_iter>50</opt_iter>
		</time_stepper>
		<analysis type="dynamic"/>
		<symmetric_stiffness>0</symmetric_stiffness>
	</Control>
	<Globals>
		<Constants>
			<T>0</T>
			<R>0</R>
			<Fc>0</Fc>
		</Constants>
	</Globals>
	<Material>
		<material id="1" name="Fluid-FSI domain" type="fluid-FSI">
			<fluid type="fluid">
				<density>1</density>
				<k>2.6089e+07</k>
				<viscous type="Newtonian fluid">
					<mu>0</mu>
					<kappa>0</kappa>
				</viscous>
			</fluid>
			<solid type="neo-Hookean">
				<density>0</density>
				<E>1e-9</E>
				<v>0</v>
			</solid>
		</material>
	</Material>
	<Geometry>
		<Nodes name="Box02">
			<node id="1"> -4.7454750e+02, -5.0000000e+00,  0.0000000e+00</node>
			<node id="2"> -4.7454750e+02, -5.0000000e+00,  1.0000000e+00</node>
			<node id="3"> -4.7454750e+02,  0.0000000e+00,  0.0000000e+00</node>
			<node id="4"> -4.7454750e+02,  0.0000000e+00,  1.0000000e+00</node>
			<node id="5"> -4.7454750e+02,  5.0000000e+00,  0.0000000e+00</node>
			<node id="6"> -4.7454750e+02,  5.0000000e+00,  1.0000000e+00</node>
			<node id="7"> -4.6865250e+02, -5.0000000e+00,  0.0000000e+00</node>
			<node id="8"> -4.6865250e+02, -5.0000000e+00,  1.0000000e+00</node>
			<node id="9"> -4.6865250e+02,  0.0000000e+00,  0.0000000e+00</node>
			<node id="10"> -4.6865250e+02,  0.0000000e+00,  1.0000000e+00</node>
			<node id="11"> -4.6865250e+02,  5.0000000e+00,  0.0000000e+00</node>
			<node id="12"> -4.6865250e+02,  5.0000000e+00,  1.0000000e+00</node>
			<node id="13"> -4.6275750e+02, -5.0000000e+00,  0.0000000e+00</node>
			<node id="14"> -4.6275750e+02, -5.0000000e+00,  1.0000000e+00</node>
			<node id="15"> -4.6275750e+02,  0.0000000e+00,  0.0000000e+00</node>
			<node id="16"> -4.6275750e+02,  0.0000000e+00,  1.0000000e+00</node>
			<node id="17"> -4.6275750e+02,  5.0000000e+00,  0.0000000e+00</node>
			<node id="18"> -4.6275750e+02,  5.0000000e+00,  1.0000000e+00</node>
			<node id="19"> -4.5686250e+02, -5.0000000e+00,  0.0000000e+00</node>
			<node id="20"> -4.5686250e+02, -5.0000000e+00,  1.0000000e+00</node>
<!-- ... 952 like lines cut -->
		</Nodes>
		<Elements type="hex8" mat="1" name="Part1">
			<elem id="1">     1,     7,     9,     3,     2,     8,    10,     4</elem>
			<elem id="2">     3,     9,    11,     5,     4,    10,    12,     6</elem>
			<elem id="3">     7,    13,    15,     9,     8,    14,    16,    10</elem>
			<elem id="4">     9,    15,    17,    11,    10,    16,    18,    12</elem>
			<elem id="5">    13,    19,    21,    15,    14,    20,    22,    16</elem>
			<elem id="6">    15,    21,    23,    17,    16,    22,    24,    18</elem>
			<elem id="7">    19,    25,    27,    21,    20,    26,    28,    22</elem>
			<elem id="8">    21,    27,    29,    23,    22,    28,    30,    24</elem>
			<elem id="9">    25,    31,    33,    27,    26,    32,    34,    28</elem>
			<elem id="10">    27,    33,    35,    29,    28,    34,    36,    30</elem>
			<elem id="11">    31,    37,    39,    33,    32,    38,    40,    34</elem>
			<elem id="12">    33,    39,    41,    35,    34,    40,    42,    36</elem>
			<elem id="13">    37,    43,    45,    39,    38,    44,    46,    40</elem>
			<elem id="14">    39,    45,    47,    41,    40,    46,    48,    42</elem>
			<elem id="15">    43,    49,    51,    45,    44,    50,    52,    46</elem>
			<elem id="16">    45,    51,    53,    47,    46,    52,    54,    48</elem>
			<elem id="17">    49,    55,    57,    51,    50,    56,    58,    52</elem>
			<elem id="18">    51,    57,    59,    53,    52,    58,    60,    54</elem>
			<elem id="19">    55,    61,    63,    57,    56,    62,    64,    58</elem>
			<elem id="20">    57,    63,    65,    59,    58,    64,    66,    60</elem>
<!-- ... 302 like lines cut -->
		</Elements>
		<NodeSet name="FixedDisplacement01 uz">
			<node id="1"/>
			<node id="2"/>
			<node id="3"/>
			<node id="4"/>
			<node id="5"/>
			<node id="6"/>
			<node id="7"/>
			<node id="8"/>
			<node id="9"/>
			<node id="10"/>
			<node id="11"/>
			<node id="12"/>
			<node id="13"/>
			<node id="14"/>
			<node id="15"/>
			<node id="16"/>
			<node id="17"/>
			<node id="18"/>
			<node id="19"/>
			<node id="20"/>
<!-- ... 1924 like lines cut -->
		</NodeSet>
		<NodeSet name="FixedDisplacement02 uy">
			<node id="1"/>
			<node id="2"/>
			<node id="7"/>
			<node id="8"/>
			<node id="13"/>
			<node id="14"/>
			<node id="19"/>
			<node id="20"/>
			<node id="25"/>
			<node id="26"/>
			<node id="31"/>
			<node id="32"/>
			<node id="37"/>
			<node id="38"/>
			<node id="43"/>
			<node id="44"/>
			<node id="49"/>
			<node id="50"/>
			<node id="55"/>
			<node id="56"/>
<!-- ... 304 like lines cut -->
		</NodeSet>
		<NodeSet name="FixedDisplacement03 ux">
			<node id="967"/>
			<node id="968"/>
			<node id="969"/>
			<node id="970"/>
			<node id="971"/>
			<node id="972"/>
		</NodeSet>
		<NodeSet name="PrescribedDisplacement01 ux">
			<node id="1"/>
			<node id="2"/>
			<node id="3"/>
			<node id="4"/>
			<node id="5"/>
			<node id="6"/>
		</NodeSet>
		<NodeSet name="FixedVelocity01">
			<node id="1"/>
			<node id="2"/>
			<node id="3"/>
			<node id="4"/>
			<node id="5"/>
			<node id="6"/>
			<node id="7"/>
			<node id="8"/>
			<node id="9"/>
			<node id="10"/>
			<node id="11"/>
			<node id="12"/>
			<node id="13"/>
			<node id="14"/>
			<node id="15"/>
			<node id="16"/>
			<node id="17"/>
			<node id="18"/>
			<node id="19"/>
			<node id="20"/>
<!-- ... 1924 like lines cut -->
		</NodeSet>
		<NodeSet name="FixedVelocity02">
			<node id="1"/>
			<node id="2"/>
			<node id="7"/>
			<node id="8"/>
			<node id="13"/>
			<node id="14"/>
			<node id="19"/>
			<node id="20"/>
			<node id="25"/>
			<node id="26"/>
			<node id="31"/>
			<node id="32"/>
			<node id="37"/>
			<node id="38"/>
			<node id="43"/>
			<node id="44"/>
			<node id="49"/>
			<node id="50"/>
			<node id="55"/>
			<node id="56"/>
<!-- ... 304 like lines cut -->
		</NodeSet>
		<NodeSet name="PressureLoad01">
			<node id="5"/>
			<node id="6"/>
			<node id="11"/>
			<node id="12"/>
			<node id="17"/>
			<node id="18"/>
			<node id="23"/>
			<node id="24"/>
			<node id="29"/>
			<node id="30"/>
			<node id="35"/>
			<node id="36"/>
			<node id="41"/>
			<node id="42"/>
			<node id="47"/>
			<node id="48"/>
			<node id="53"/>
			<node id="54"/>
			<node id="59"/>
			<node id="60"/>
<!-- ... 304 like lines cut -->
		</NodeSet>
		<Surface name="PressureLoad01">
			<quad4 id="1">   971,   965,   966,   972</quad4>
			<quad4 id="2">   965,   959,   960,   966</quad4>
			<quad4 id="3">   959,   953,   954,   960</quad4>
			<quad4 id="4">   953,   947,   948,   954</quad4>
			<quad4 id="5">   947,   941,   942,   948</quad4>
			<quad4 id="6">   941,   935,   936,   942</quad4>
			<quad4 id="7">   935,   929,   930,   936</quad4>
			<quad4 id="8">   929,   923,   924,   930</quad4>
			<quad4 id="9">   923,   917,   918,   924</quad4>
			<quad4 id="10">   917,   911,   912,   918</quad4>
			<quad4 id="11">   911,   905,   906,   912</quad4>
			<quad4 id="12">   905,   899,   900,   906</quad4>
			<quad4 id="13">   899,   893,   894,   900</quad4>
			<quad4 id="14">   893,   887,   888,   894</quad4>
			<quad4 id="15">   887,   881,   882,   888</quad4>
			<quad4 id="16">   881,   875,   876,   882</quad4>
			<quad4 id="17">   875,   869,   870,   876</quad4>
			<quad4 id="18">   869,   863,   864,   870</quad4>
			<quad4 id="19">   863,   857,   858,   864</quad4>
			<quad4 id="20">   857,   851,   852,   858</quad4>
<!-- ... 141 like lines cut -->
		</Surface>
		<Surface name="block">
			<quad4 id="1">     1,     7,     8,     2</quad4>
			<quad4 id="2">     7,    13,    14,     8</quad4>
			<quad4 id="3">    13,    19,    20,    14</quad4>
			<quad4 id="4">    19,    25,    26,    20</quad4>
			<quad4 id="5">    25,    31,    32,    26</quad4>
			<quad4 id="6">    31,    37,    38,    32</quad4>
			<quad4 id="7">    37,    43,    44,    38</quad4>
			<quad4 id="8">    43,    49,    50,    44</quad4>
			<quad4 id="9">    49,    55,    56,    50</quad4>
			<quad4 id="10">    55,    61,    62,    56</quad4>
			<quad4 id="11">    61,    67,    68,    62</quad4>
			<quad4 id="12">    67,    73,    74,    68</quad4>
			<quad4 id="13">    73,    79,    80,    74</quad4>
			<quad4 id="14">    79,    85,    86,    80</quad4>
			<quad4 id="15">    85,    91,    92,    86</quad4>
			<quad4 id="16">    91,    97,    98,    92</quad4>
			<quad4 id="17">    97,   103,   104,    98</quad4>
			<quad4 id="18">   103,   109,   110,   104</quad4>
			<quad4 id="19">   109,   115,   116,   110</quad4>
			<quad4 id="20">   115,   121,   122,   116</quad4>
<!-- ... 950 like lines cut -->
		</Surface>
	</Geometry>
	<Boundary>
		<fix bc="z" node_set="FixedDisplacement01 uz"/>
		<fix bc="y" node_set="FixedDisplacement02 uy"/>
		<fix bc="x" node_set="FixedDisplacement03 ux"/>
		<fix bc="wz" node_set="FixedVelocity01"/>
		<fix bc="wy" node_set="FixedVelocity02"/>
		<prescribe bc="x" node_set="PrescribedDisplacement01 ux">
			<scale lc="2">1</scale>
			<relative>0</relative>
		</prescribe>
	</Boundary>
	<Loads>
		<surface_load type="fluid-FSI traction" surface="PressureLoad01">
		</surface_load>
		<body_load type="const">
			<y lc="1">1</y>
		</body_load>
	</Loads>
	<LoadData>
		<loadcurve id="1" type="step">
			<point>0,0</point>
			<point>1,1</point>
		</loadcurve>
		<loadcurve id="2" type="smooth">
			<point>0,0</point>
			<point>1.7888, 0.00306361654260422</point>
			<point>3.5776, 0.00413241572614015</point>
			<point>5.3664, 0.00557377822224106</point>
			<point>7.1552, 0.00751732117791015</point>
			<point>8.944, 0.0101375506095155</point>
			<point>10.7328, 0.0136692389968902</point>
			<point>12.5216, 0.01842793319219</point>
			<point>14.3104, 0.0248371914336144</point>
			<point>16.0992, 0.0334645528968821</point>
			<point>17.888, 0.0450686690823285</point>
			<point>19.6768, 0.0606603906241507</point>
			<point>21.4656, 0.081580731571304</point>
			<point>23.2544, 0.109598192338061</point>
			<point>25.0432, 0.1470263185912</point>
			<point>26.832, 0.19685862185528</point>
			<point>28.6208, 0.262910594194312</point>
			<point>30.4096, 0.349945533434195</point>
			<point>32.1984, 0.463740271855094</point>
			<point>33.9872, 0.611018214919116</point>
<!-- ... 141 like lines cut -->
		</loadcurve>
		<loadcurve id="3" type="smooth">
			<point>0,0</point>
			<point>1,1</point>
		</loadcurve>
	</LoadData>
	<Output>
		<plotfile type="febio">
			<var type="acceleration"/>
			<var type="displacement"/>
			<var type="fluid pressure"/>
			<var type="fluid acceleration"/>
			<var type="fluid dilatation"/>
			<var type="fluid rate of deformation"/>
			<var type="fluid stress"/>
			<var type="fluid velocity"/>
			<var type="relative fluid velocity"/>
			<var type="nodal fluid velocity"/>
			<var type="nodal relative fluid velocity"/>
			<var type="fluid vorticity"/>
			<var type="relative volume"/>
			<var type="stress"/>
			<var type="velocity"/>
			<var type="fluid element strain energy"/>
			<var type="fluid element kinetic energy"/>
			<var type="fluid element center of mass"/>
			<var type="fluid element linear momentum"/>
			<var type="fluid element angular momentum"/>
			<var type="enclosed volume" surface="block"/>
		</plotfile>
	</Output>
</febio_spec>
