<?xml version="1.0" encoding="ISO-8859-1"?>
<!--
Problem Description:
	Quarter cylinder tube flow with wall surrounded by HEX20G8
	matrix. Used tied contact. Acts to restrict
	movement. Newtonian fluid and neoHookean solids
Main Features:
        Tied contact
        FSI traction
	Norm fluid vel
	prescribed/fixed ef
	PostBL
	Hex20G8
Secondary Features:
	Broyden
	No diverge ref
	No ref each step
Materials:
        Newtonian Fluid
Degrees of Freedom: 30628
Results:
	Steps Completed: 50
	Equilibrium Iterations: 311
	Right Hand Evaluations: 470
	Stiffness Reformations: 6
	Other:
		The total nodal fluid velocity is 5.68929 at time 0.5
		for node 5
Comments:
   
-->
<febio_spec version="2.5">
	<Module type="fluid-FSI"/>
	<Control>
		<time_steps>50</time_steps>
		<step_size>0.01</step_size>
		<max_refs>5</max_refs>
		<max_ups>50</max_ups>
		<diverge_reform>0</diverge_reform>
		<reform_each_time_step>0</reform_each_time_step>
		<dtol>0.001</dtol>
		<vtol>0.001</vtol>
		<ftol>0.001</ftol>
		<etol>0.01</etol>
		<rtol>0.001</rtol>
		<lstol>0.9</lstol>
		<min_residual>1e-20</min_residual>
		<rhoi>0</rhoi>
		<qnmethod>1</qnmethod>
		<time_stepper>
			<dtmin>0.001</dtmin>
			<dtmax>0.01</dtmax>
			<max_retries>5</max_retries>
			<opt_iter>50</opt_iter>
		</time_stepper>
		<analysis type="dynamic"/>
		<symmetric_stiffness>0</symmetric_stiffness>
	</Control>
	<Globals>
		<Constants>
			<T>0</T>
			<R>0</R>
			<Fc>0</Fc>
		</Constants>
	</Globals>
	<Material>
		<material id="1" name="Material1" type="fluid-FSI">
			<fluid type="fluid">
				<density>1</density>
				<k>1e+09</k>
				<viscous type="Newtonian fluid">
					<mu>0.1</mu>
					<kappa>0</kappa>
				</viscous>
			</fluid>
			<solid type="neo-Hookean">
				<density>0</density>
				<E>1e-09</E>
				<v>0</v>
			</solid>
		</material>
		<material id="2" name="Material2" type="neo-Hookean">
			<density>1</density>
			<E>10000</E>
			<v>0.3</v>
		</material>
		<material id="3" name="Material3" type="neo-Hookean">
			<density>1</density>
			<E>2500</E>
			<v>0.3</v>
		</material>
	</Material>
	<Geometry>
		<Nodes name="MergedObject2">
			<node id="1">  0.0000000e+00,  0.0000000e+00,  0.0000000e+00</node>
			<node id="2">  1.7677670e-01,  0.0000000e+00,  0.0000000e+00</node>
			<node id="3">  0.0000000e+00,  1.7677670e-01,  0.0000000e+00</node>
			<node id="4">  1.7677670e-01,  1.7677670e-01,  0.0000000e+00</node>
			<node id="5">  0.0000000e+00,  0.0000000e+00,  1.5000000e+01</node>
			<node id="6">  1.7677670e-01,  0.0000000e+00,  1.5000000e+01</node>
			<node id="7">  0.0000000e+00,  1.7677670e-01,  1.5000000e+01</node>
			<node id="8">  1.7677670e-01,  1.7677670e-01,  1.5000000e+01</node>
			<node id="9">  5.0000000e-01,  0.0000000e+00,  0.0000000e+00</node>
			<node id="10">  3.5355340e-01,  3.5355339e-01,  0.0000000e+00</node>
			<node id="11">  0.0000000e+00,  5.0000000e-01,  0.0000000e+00</node>
			<node id="12">  5.0000000e-01,  0.0000000e+00,  1.5000000e+01</node>
			<node id="13">  3.5355340e-01,  3.5355339e-01,  1.5000000e+01</node>
			<node id="14">  0.0000000e+00,  5.0000000e-01,  1.5000000e+01</node>
			<node id="15">  0.0000000e+00,  0.0000000e+00,  2.5000000e-01</node>
			<node id="16">  0.0000000e+00,  0.0000000e+00,  5.0000000e-01</node>
			<node id="17">  0.0000000e+00,  0.0000000e+00,  7.5000000e-01</node>
			<node id="18">  0.0000000e+00,  0.0000000e+00,  1.0000000e+00</node>
			<node id="19">  0.0000000e+00,  0.0000000e+00,  1.2500000e+00</node>
			<node id="20">  0.0000000e+00,  0.0000000e+00,  1.5000000e+00</node>
<!-- ... 4372 like lines cut -->
		</Nodes>
		<Nodes name="Object05">
			<node id="4393">  5.5000000e-01,  0.0000000e+00,  0.0000000e+00</node>
			<node id="4394">  1.0250000e+00,  0.0000000e+00,  0.0000000e+00</node>
			<node id="4395">  1.5000000e+00,  0.0000000e+00,  0.0000000e+00</node>
			<node id="4396">  5.3125921e-01,  1.4235047e-01,  0.0000000e+00</node>
			<node id="4397">  9.9007397e-01,  2.6528952e-01,  0.0000000e+00</node>
			<node id="4398">  1.4488887e+00,  3.8822856e-01,  0.0000000e+00</node>
			<node id="4399">  4.7631397e-01,  2.7500000e-01,  0.0000000e+00</node>
			<node id="4400">  8.8767604e-01,  5.1249999e-01,  0.0000000e+00</node>
			<node id="4401">  1.2990381e+00,  7.4999999e-01,  0.0000000e+00</node>
			<node id="4402">  3.8890873e-01,  3.8890872e-01,  0.0000000e+00</node>
			<node id="4403">  7.2478446e-01,  7.2478444e-01,  0.0000000e+00</node>
			<node id="4404">  1.0606602e+00,  1.0606602e+00,  0.0000000e+00</node>
			<node id="4405">  2.7500001e-01,  4.7631397e-01,  0.0000000e+00</node>
			<node id="4406">  5.1250002e-01,  8.8767603e-01,  0.0000000e+00</node>
			<node id="4407">  7.5000002e-01,  1.2990381e+00,  0.0000000e+00</node>
			<node id="4408">  1.4235049e-01,  5.3125920e-01,  0.0000000e+00</node>
			<node id="4409">  2.6528954e-01,  9.9007397e-01,  0.0000000e+00</node>
			<node id="4410">  3.8822860e-01,  1.4488887e+00,  0.0000000e+00</node>
			<node id="4411">  1.4737193e-08,  5.5000000e-01,  0.0000000e+00</node>
			<node id="4412">  2.7464769e-08,  1.0250000e+00,  0.0000000e+00</node>
<!-- ... 2253 like lines cut -->
		</Nodes>
		<Elements type="hex8" mat="1" name="Part1">
			<elem id="1">     1,   134,   938,   137,    15,   465,  1550,   582</elem>
			<elem id="2">   134,   133,   939,   938,   465,   464,  1551,  1550</elem>
			<elem id="3">   133,     2,   200,   939,   464,    74,   700,  1551</elem>
			<elem id="4">   137,   938,   936,   138,   582,  1550,  1552,   583</elem>
			<elem id="5">   938,   939,   937,   936,  1550,  1551,  1553,  1552</elem>
			<elem id="6">   939,   200,   201,   937,  1551,   700,   701,  1553</elem>
			<elem id="7">   138,   936,   264,     3,   583,  1552,   819,   139</elem>
			<elem id="8">   936,   937,   263,   264,  1552,  1553,   818,   819</elem>
			<elem id="9">   937,   201,     4,   263,  1553,   701,   202,   818</elem>
			<elem id="10">    15,   465,  1550,   582,    16,   467,  1554,   584</elem>
			<elem id="11">   465,   464,  1551,  1550,   467,   466,  1555,  1554</elem>
			<elem id="12">   464,    74,   700,  1551,   466,    75,   702,  1555</elem>
			<elem id="13">   582,  1550,  1552,   583,   584,  1554,  1556,   585</elem>
			<elem id="14">  1550,  1551,  1553,  1552,  1554,  1555,  1557,  1556</elem>
			<elem id="15">  1551,   700,   701,  1553,  1555,   702,   703,  1557</elem>
			<elem id="16">   583,  1552,   819,   139,   585,  1556,   821,   140</elem>
			<elem id="17">  1552,  1553,   818,   819,  1556,  1557,   820,   821</elem>
			<elem id="18">  1553,   701,   202,   818,  1557,   703,   203,   820</elem>
			<elem id="19">    16,   467,  1554,   584,    17,   469,  1558,   586</elem>
			<elem id="20">   467,   466,  1555,  1554,   469,   468,  1559,  1558</elem>
<!-- ... 3040 like lines cut -->
		</Elements>
		<Elements type="hex8" mat="2" name="Part3">
			<elem id="3061">     9,   330,  1062,   267,  3966,  4031,  4157,  3972</elem>
			<elem id="3062">   330,   331,  1063,  1062,  4031,  4032,  4158,  4157</elem>
			<elem id="3063">   331,    10,   332,  1063,  4032,  3967,  4033,  4158</elem>
			<elem id="3064">   267,  1062,  1064,   268,  3972,  4157,  4159,  3973</elem>
			<elem id="3065">  1062,  1063,  1065,  1064,  4157,  4158,  4160,  4159</elem>
			<elem id="3066">  1063,   332,   333,  1065,  4158,  4033,  4034,  4160</elem>
			<elem id="3067">   268,  1064,  1066,   269,  3973,  4159,  4161,  3974</elem>
			<elem id="3068">  1064,  1065,  1067,  1066,  4159,  4160,  4162,  4161</elem>
			<elem id="3069">  1065,   333,   334,  1067,  4160,  4034,  4035,  4162</elem>
			<elem id="3070">   269,  1066,  1068,   270,  3974,  4161,  4163,  3975</elem>
			<elem id="3071">  1066,  1067,  1069,  1068,  4161,  4162,  4164,  4163</elem>
			<elem id="3072">  1067,   334,   335,  1069,  4162,  4035,  4036,  4164</elem>
			<elem id="3073">   270,  1068,  1070,   271,  3975,  4163,  4165,  3976</elem>
			<elem id="3074">  1068,  1069,  1071,  1070,  4163,  4164,  4166,  4165</elem>
			<elem id="3075">  1069,   335,   336,  1071,  4164,  4036,  4037,  4166</elem>
			<elem id="3076">   271,  1070,  1072,   272,  3976,  4165,  4167,  3977</elem>
			<elem id="3077">  1070,  1071,  1073,  1072,  4165,  4166,  4168,  4167</elem>
			<elem id="3078">  1071,   336,   337,  1073,  4166,  4037,  4038,  4168</elem>
			<elem id="3079">   272,  1072,  1074,   273,  3977,  4167,  4169,  3978</elem>
			<elem id="3080">  1072,  1073,  1075,  1074,  4167,  4168,  4170,  4169</elem>
<!-- ... 340 like lines cut -->
		</Elements>
		<Elements type="HEX20G8" mat="3" name="Part7">
			<elem id="3421">  4393,  4394,  4397,  4396,  4414,  4415,  4418,  4417,  5044,  5047,  5052,  5045,  5097,  5100,  5105,  5098,  5046,  5048,  5055,  5053</elem>
			<elem id="3422">  4394,  4395,  4398,  4397,  4415,  4416,  4419,  4418,  5049,  5050,  5056,  5047,  5101,  5103,  5108,  5100,  5048,  5051,  5058,  5055</elem>
			<elem id="3423">  4396,  4397,  4400,  4399,  4417,  4418,  4421,  4420,  5052,  5057,  5060,  5054,  5105,  5109,  5113,  5106,  5053,  5055,  5063,  5061</elem>
			<elem id="3424">  4397,  4398,  4401,  4400,  4418,  4419,  4422,  4421,  5056,  5059,  5064,  5057,  5108,  5111,  5116,  5109,  5055,  5058,  5066,  5063</elem>
			<elem id="3425">  4399,  4400,  4403,  4402,  4420,  4421,  4424,  4423,  5060,  5065,  5068,  5062,  5113,  5117,  5121,  5114,  5061,  5063,  5071,  5069</elem>
			<elem id="3426">  4400,  4401,  4404,  4403,  4421,  4422,  4425,  4424,  5064,  5067,  5072,  5065,  5116,  5119,  5124,  5117,  5063,  5066,  5074,  5071</elem>
			<elem id="3427">  4402,  4403,  4406,  4405,  4423,  4424,  4427,  4426,  5068,  5073,  5076,  5070,  5121,  5125,  5129,  5122,  5069,  5071,  5079,  5077</elem>
			<elem id="3428">  4403,  4404,  4407,  4406,  4424,  4425,  4428,  4427,  5072,  5075,  5080,  5073,  5124,  5127,  5132,  5125,  5071,  5074,  5082,  5079</elem>
			<elem id="3429">  4405,  4406,  4409,  4408,  4426,  4427,  4430,  4429,  5076,  5081,  5084,  5078,  5129,  5133,  5137,  5130,  5077,  5079,  5087,  5085</elem>
			<elem id="3430">  4406,  4407,  4410,  4409,  4427,  4428,  4431,  4430,  5080,  5083,  5088,  5081,  5132,  5135,  5140,  5133,  5079,  5082,  5090,  5087</elem>
			<elem id="3431">  4408,  4409,  4412,  4411,  4429,  4430,  4433,  4432,  5084,  5089,  5092,  5086,  5137,  5141,  5145,  5138,  5085,  5087,  5094,  5093</elem>
			<elem id="3432">  4409,  4410,  4413,  4412,  4430,  4431,  4434,  4433,  5088,  5091,  5095,  5089,  5140,  5143,  5147,  5141,  5087,  5090,  5096,  5094</elem>
			<elem id="3433">  4414,  4415,  4418,  4417,  4435,  4436,  4439,  4438,  5097,  5100,  5105,  5098,  5150,  5153,  5158,  5151,  5099,  5102,  5110,  5107</elem>
			<elem id="3434">  4415,  4416,  4419,  4418,  4436,  4437,  4440,  4439,  5101,  5103,  5108,  5100,  5154,  5156,  5161,  5153,  5102,  5104,  5112,  5110</elem>
			<elem id="3435">  4417,  4418,  4421,  4420,  4438,  4439,  4442,  4441,  5105,  5109,  5113,  5106,  5158,  5162,  5166,  5159,  5107,  5110,  5118,  5115</elem>
			<elem id="3436">  4418,  4419,  4422,  4421,  4439,  4440,  4443,  4442,  5108,  5111,  5116,  5109,  5161,  5164,  5169,  5162,  5110,  5112,  5120,  5118</elem>
			<elem id="3437">  4420,  4421,  4424,  4423,  4441,  4442,  4445,  4444,  5113,  5117,  5121,  5114,  5166,  5170,  5174,  5167,  5115,  5118,  5126,  5123</elem>
			<elem id="3438">  4421,  4422,  4425,  4424,  4442,  4443,  4446,  4445,  5116,  5119,  5124,  5117,  5169,  5172,  5177,  5170,  5118,  5120,  5128,  5126</elem>
			<elem id="3439">  4423,  4424,  4427,  4426,  4444,  4445,  4448,  4447,  5121,  5125,  5129,  5122,  5174,  5178,  5182,  5175,  5123,  5126,  5134,  5131</elem>
			<elem id="3440">  4424,  4425,  4428,  4427,  4445,  4446,  4449,  4448,  5124,  5127,  5132,  5125,  5177,  5180,  5185,  5178,  5126,  5128,  5136,  5134</elem>
<!-- ... 340 like lines cut -->
		</Elements>
		<NodeSet name="FixedDisplacement1">
			<node id="1"/>
			<node id="3"/>
			<node id="5"/>
			<node id="7"/>
			<node id="11"/>
			<node id="14"/>
			<node id="15"/>
			<node id="16"/>
			<node id="17"/>
			<node id="18"/>
			<node id="19"/>
			<node id="20"/>
			<node id="21"/>
			<node id="22"/>
			<node id="23"/>
			<node id="24"/>
			<node id="25"/>
			<node id="26"/>
			<node id="27"/>
			<node id="28"/>
<!-- ... 1689 like lines cut -->
		</NodeSet>
		<NodeSet name="FixedDisplacement2">
			<node id="1"/>
			<node id="2"/>
			<node id="5"/>
			<node id="6"/>
			<node id="9"/>
			<node id="12"/>
			<node id="15"/>
			<node id="16"/>
			<node id="17"/>
			<node id="18"/>
			<node id="19"/>
			<node id="20"/>
			<node id="21"/>
			<node id="22"/>
			<node id="23"/>
			<node id="24"/>
			<node id="25"/>
			<node id="26"/>
			<node id="27"/>
			<node id="28"/>
<!-- ... 1689 like lines cut -->
		</NodeSet>
		<NodeSet name="FixedDisplacement3">
			<node id="1"/>
			<node id="2"/>
			<node id="3"/>
			<node id="4"/>
			<node id="5"/>
			<node id="6"/>
			<node id="7"/>
			<node id="8"/>
			<node id="9"/>
			<node id="10"/>
			<node id="11"/>
			<node id="12"/>
			<node id="13"/>
			<node id="14"/>
			<node id="133"/>
			<node id="134"/>
			<node id="135"/>
			<node id="136"/>
			<node id="137"/>
			<node id="138"/>
<!-- ... 768 like lines cut -->
		</NodeSet>
		<NodeSet name="FixedDisplacement4">
			<node id="4395"/>
			<node id="4398"/>
			<node id="4401"/>
			<node id="4404"/>
			<node id="4407"/>
			<node id="4410"/>
			<node id="4413"/>
			<node id="4416"/>
			<node id="4419"/>
			<node id="4422"/>
			<node id="4425"/>
			<node id="4428"/>
			<node id="4431"/>
			<node id="4434"/>
			<node id="4437"/>
			<node id="4440"/>
			<node id="4443"/>
			<node id="4446"/>
			<node id="4449"/>
			<node id="4452"/>
<!-- ... 593 like lines cut -->
		</NodeSet>
		<NodeSet name="FixedFluidVelocity1">
			<node id="9"/>
			<node id="10"/>
			<node id="11"/>
			<node id="12"/>
			<node id="13"/>
			<node id="14"/>
			<node id="267"/>
			<node id="268"/>
			<node id="269"/>
			<node id="270"/>
			<node id="271"/>
			<node id="272"/>
			<node id="273"/>
			<node id="274"/>
			<node id="275"/>
			<node id="276"/>
			<node id="277"/>
			<node id="278"/>
			<node id="279"/>
			<node id="280"/>
<!-- ... 407 like lines cut -->
		</NodeSet>
		<NodeSet name="FixedFluidDilatation1">
			<node id="5"/>
			<node id="6"/>
			<node id="7"/>
			<node id="8"/>
			<node id="12"/>
			<node id="13"/>
			<node id="14"/>
			<node id="135"/>
			<node id="136"/>
			<node id="198"/>
			<node id="199"/>
			<node id="261"/>
			<node id="262"/>
			<node id="265"/>
			<node id="266"/>
			<node id="328"/>
			<node id="329"/>
			<node id="391"/>
			<node id="392"/>
			<node id="395"/>
<!-- ... 45 like lines cut -->
		</NodeSet>
		<NodeSet name="FixedFluidDilatation2">
			<node id="9"/>
			<node id="10"/>
			<node id="11"/>
			<node id="330"/>
			<node id="331"/>
			<node id="397"/>
			<node id="398"/>
		</NodeSet>
		<Surface name="FluidNormalVelocity1">
			<quad4 id="1">   137,   938,   134,     1</quad4>
			<quad4 id="2">   938,   939,   133,   134</quad4>
			<quad4 id="3">   939,   200,     2,   133</quad4>
			<quad4 id="4">   138,   936,   938,   137</quad4>
			<quad4 id="5">   936,   937,   939,   938</quad4>
			<quad4 id="6">   937,   201,   200,   939</quad4>
			<quad4 id="7">     3,   264,   936,   138</quad4>
			<quad4 id="8">   264,   263,   937,   936</quad4>
			<quad4 id="9">   263,     4,   201,   937</quad4>
			<quad4 id="10">   200,  1300,   327,     2</quad4>
			<quad4 id="11">  1300,  1301,   326,   327</quad4>
			<quad4 id="12">   201,  1298,  1300,   200</quad4>
			<quad4 id="13">  1298,  1299,  1301,  1300</quad4>
			<quad4 id="14">     4,   394,  1298,   201</quad4>
			<quad4 id="15">   394,   393,  1299,  1298</quad4>
			<quad4 id="16">   263,  1544,   394,     4</quad4>
			<quad4 id="17">  1544,  1545,   393,   394</quad4>
			<quad4 id="18">   264,  1542,  1544,   263</quad4>
			<quad4 id="19">  1542,  1543,  1545,  1544</quad4>
			<quad4 id="20">     3,   461,  1542,   264</quad4>
<!-- ... 31 like lines cut -->
		</Surface>
		<Surface name="FSIInterfaceTraction1">
			<quad4 id="1">     9,   330,  1062,   267</quad4>
			<quad4 id="2">   330,   331,  1063,  1062</quad4>
			<quad4 id="3">   331,    10,   332,  1063</quad4>
			<quad4 id="4">   267,  1062,  1064,   268</quad4>
			<quad4 id="5">  1062,  1063,  1065,  1064</quad4>
			<quad4 id="6">  1063,   332,   333,  1065</quad4>
			<quad4 id="7">   268,  1064,  1066,   269</quad4>
			<quad4 id="8">  1064,  1065,  1067,  1066</quad4>
			<quad4 id="9">  1065,   333,   334,  1067</quad4>
			<quad4 id="10">   269,  1066,  1068,   270</quad4>
			<quad4 id="11">  1066,  1067,  1069,  1068</quad4>
			<quad4 id="12">  1067,   334,   335,  1069</quad4>
			<quad4 id="13">   270,  1068,  1070,   271</quad4>
			<quad4 id="14">  1068,  1069,  1071,  1070</quad4>
			<quad4 id="15">  1069,   335,   336,  1071</quad4>
			<quad4 id="16">   271,  1070,  1072,   272</quad4>
			<quad4 id="17">  1070,  1071,  1073,  1072</quad4>
			<quad4 id="18">  1071,   336,   337,  1073</quad4>
			<quad4 id="19">   272,  1072,  1074,   273</quad4>
			<quad4 id="20">  1072,  1073,  1075,  1074</quad4>
<!-- ... 340 like lines cut -->
		</Surface>
		<Surface name="Tied-elastic1_master">
			<quad8 id="1">  4396,  4393,  4414,  4417,  5045,  5046,  5098,  5053</quad8>
			<quad8 id="2">  4399,  4396,  4417,  4420,  5054,  5053,  5106,  5061</quad8>
			<quad8 id="3">  4402,  4399,  4420,  4423,  5062,  5061,  5114,  5069</quad8>
			<quad8 id="4">  4405,  4402,  4423,  4426,  5070,  5069,  5122,  5077</quad8>
			<quad8 id="5">  4408,  4405,  4426,  4429,  5078,  5077,  5130,  5085</quad8>
			<quad8 id="6">  4411,  4408,  4429,  4432,  5086,  5085,  5138,  5093</quad8>
			<quad8 id="7">  4417,  4414,  4435,  4438,  5098,  5099,  5151,  5107</quad8>
			<quad8 id="8">  4420,  4417,  4438,  4441,  5106,  5107,  5159,  5115</quad8>
			<quad8 id="9">  4423,  4420,  4441,  4444,  5114,  5115,  5167,  5123</quad8>
			<quad8 id="10">  4426,  4423,  4444,  4447,  5122,  5123,  5175,  5131</quad8>
			<quad8 id="11">  4429,  4426,  4447,  4450,  5130,  5131,  5183,  5139</quad8>
			<quad8 id="12">  4432,  4429,  4450,  4453,  5138,  5139,  5191,  5146</quad8>
			<quad8 id="13">  4438,  4435,  4456,  4459,  5151,  5152,  5204,  5160</quad8>
			<quad8 id="14">  4441,  4438,  4459,  4462,  5159,  5160,  5212,  5168</quad8>
			<quad8 id="15">  4444,  4441,  4462,  4465,  5167,  5168,  5220,  5176</quad8>
			<quad8 id="16">  4447,  4444,  4465,  4468,  5175,  5176,  5228,  5184</quad8>
			<quad8 id="17">  4450,  4447,  4468,  4471,  5183,  5184,  5236,  5192</quad8>
			<quad8 id="18">  4453,  4450,  4471,  4474,  5191,  5192,  5244,  5199</quad8>
			<quad8 id="19">  4459,  4456,  4477,  4480,  5204,  5205,  5257,  5213</quad8>
			<quad8 id="20">  4462,  4459,  4480,  4483,  5212,  5213,  5265,  5221</quad8>
<!-- ... 160 like lines cut -->
		</Surface>
		<Surface name="Tied-elastic1_slave">
			<quad4 id="1">  3966,  4031,  4157,  3972</quad4>
			<quad4 id="2">  4031,  4032,  4158,  4157</quad4>
			<quad4 id="3">  4032,  3967,  4033,  4158</quad4>
			<quad4 id="4">  3972,  4157,  4159,  3973</quad4>
			<quad4 id="5">  4157,  4158,  4160,  4159</quad4>
			<quad4 id="6">  4158,  4033,  4034,  4160</quad4>
			<quad4 id="7">  3973,  4159,  4161,  3974</quad4>
			<quad4 id="8">  4159,  4160,  4162,  4161</quad4>
			<quad4 id="9">  4160,  4034,  4035,  4162</quad4>
			<quad4 id="10">  3974,  4161,  4163,  3975</quad4>
			<quad4 id="11">  4161,  4162,  4164,  4163</quad4>
			<quad4 id="12">  4162,  4035,  4036,  4164</quad4>
			<quad4 id="13">  3975,  4163,  4165,  3976</quad4>
			<quad4 id="14">  4163,  4164,  4166,  4165</quad4>
			<quad4 id="15">  4164,  4036,  4037,  4166</quad4>
			<quad4 id="16">  3976,  4165,  4167,  3977</quad4>
			<quad4 id="17">  4165,  4166,  4168,  4167</quad4>
			<quad4 id="18">  4166,  4037,  4038,  4168</quad4>
			<quad4 id="19">  3977,  4167,  4169,  3978</quad4>
			<quad4 id="20">  4167,  4168,  4170,  4169</quad4>
<!-- ... 340 like lines cut -->
		</Surface>
		<SurfacePair name="Tied-elastic1">
			<master surface="Tied-elastic1_master"/>
			<slave surface="Tied-elastic1_slave"/>
		</SurfacePair>
	</Geometry>
	<Boundary>
		<fix bc="x" node_set="FixedDisplacement1"/>
		<fix bc="y" node_set="FixedDisplacement2"/>
		<fix bc="z" node_set="FixedDisplacement3"/>
		<fix bc="x,y,z" node_set="FixedDisplacement4"/>
		<fix bc="wx,wy,wz" node_set="FixedFluidVelocity1"/>
		<fix bc="ef" node_set="FixedFluidDilatation1"/>
		<fix bc="ef" node_set="FixedFluidDilatation2"/>
	</Boundary>
	<Loads>
		<surface_load type="fluid normal velocity" surface="FluidNormalVelocity1">
			<velocity lc="1">-5</velocity>
			<prescribe_nodal_velocities>1</prescribe_nodal_velocities>
			<parabolic>0</parabolic>
		</surface_load>
		<surface_load type="fluid-FSI traction" surface="FSIInterfaceTraction1">
		</surface_load>
	</Loads>
	<Contact>
		<contact type="tied-elastic" name="Tied-elastic1" surface_pair="Tied-elastic1">
			<laugon>0</laugon>
			<tolerance>0.2</tolerance>
			<gaptol>0</gaptol>
			<penalty>1</penalty>
			<auto_penalty>1</auto_penalty>
			<two_pass>0</two_pass>
			<knmult>1</knmult>
			<search_tol>0.01</search_tol>
			<symmetric_stiffness>0</symmetric_stiffness>
			<search_radius>0.1</search_radius>
			<minaug>0</minaug>
			<maxaug>10</maxaug>
		</contact>
	</Contact>
	<LoadData>
		<loadcurve id="1" type="smooth">
			<point>0,0</point>
			<point>0.2,1</point>
		</loadcurve>
	</LoadData>
	<Output>
		<plotfile type="febio">
			<var type="acceleration"/>
			<var type="displacement"/>
			<var type="Lagrange strain"/>
			<var type="relative volume"/>
			<var type="stress"/>
			<var type="velocity"/>
			<var type="fluid acceleration"/>
			<var type="fluid density"/>
			<var type="fluid dilatation"/>
			<var type="fluid pressure"/>
			<var type="fluid rate of deformation"/>
			<var type="fluid shear viscosity"/>
			<var type="fluid stress"/>
			<var type="fluid velocity"/>
			<var type="fluid volume ratio"/>
			<var type="fluid vorticity"/>
			<var type="nodal fluid velocity"/>
			<var type="nodal relative fluid velocity"/>
			<var type="relative fluid velocity"/>
		</plotfile>
	</Output>
</febio_spec>
