<?xml version="1.0" encoding="ISO-8859-1"?>
<febio_spec version="2.5">
	<Module type="solid"/>
	<Control>
		<time_steps>10</time_steps>
		<step_size>0.1</step_size>
		<max_refs>15</max_refs>
		<max_ups>10</max_ups>
		<diverge_reform>1</diverge_reform>
		<reform_each_time_step>1</reform_each_time_step>
		<dtol>0.001</dtol>
		<etol>0.01</etol>
		<rtol>0</rtol>
		<lstol>0.9</lstol>
		<min_residual>1e-020</min_residual>
		<qnmethod>0</qnmethod>
		<time_stepper>
			<dtmin>0.01</dtmin>
			<dtmax>0.1</dtmax>
			<max_retries>5</max_retries>
			<opt_iter>10</opt_iter>
		</time_stepper>
		<analysis type="static"/>
	</Control>
	<Globals>
		<Constants>
			<T>0</T>
			<R>0</R>
			<Fc>0</Fc>
		</Constants>
	</Globals>
	<Material>
		<material id="1" name="Material1" type="orthotropic elastic">
			<mat_axis type="vector">
				<a>0.866,0.5,0</a>
				<d>-0.5,0.866,0</d>
			</mat_axis>
			<density>1</density>
			<E1>1</E1>
			<E2>2</E2>
			<E3>3</E3>
			<G12>3</G12>
			<G23>2</G23>
			<G31>1</G31>
			<v12>0.3</v12>
			<v23>0.2</v23>
			<v31>0.1</v31>
		</material>
	</Material>
	<Geometry>
		<Nodes name="ma15">
			<node id="1">-4.0801270e+000,-2.9330127e+000, 5.5511151e-017</node>
			<node id="2">-4.0801270e+000,-2.9330127e+000, 1.0000000e+000</node>
			<node id="3">-4.5801270e+000,-2.0669873e+000, 5.5511151e-017</node>
			<node id="4">-4.5801270e+000,-2.0669873e+000, 1.0000000e+000</node>
			<node id="5">-3.2928312e+000,-2.4784672e+000, 5.5511151e-017</node>
			<node id="6">-3.2928312e+000,-2.4784672e+000, 1.0000000e+000</node>
			<node id="7">-3.7928312e+000,-1.6124418e+000, 5.5511151e-017</node>
			<node id="8">-3.7928312e+000,-1.6124418e+000, 1.0000000e+000</node>
			<node id="9">-2.5055354e+000,-2.0239218e+000, 5.5511151e-017</node>
			<node id="10">-2.5055354e+000,-2.0239218e+000, 1.0000000e+000</node>
			<node id="11">-3.0055354e+000,-1.1578964e+000, 5.5511151e-017</node>
			<node id="12">-3.0055354e+000,-1.1578964e+000, 1.0000000e+000</node>
			<node id="13">-1.7182396e+000,-1.5693763e+000, 5.5511151e-017</node>
			<node id="14">-1.7182396e+000,-1.5693763e+000, 1.0000000e+000</node>
			<node id="15">-2.2182396e+000,-7.0335091e-001, 5.5511151e-017</node>
			<node id="16">-2.2182396e+000,-7.0335091e-001, 1.0000000e+000</node>
			<node id="17">-9.3094374e-001,-1.1148309e+000, 5.5511151e-017</node>
			<node id="18">-9.3094374e-001,-1.1148309e+000, 1.0000000e+000</node>
			<node id="19">-1.4309437e+000,-2.4880547e-001, 5.5511151e-017</node>
			<node id="20">-1.4309437e+000,-2.4880547e-001, 1.0000000e+000</node>
<!-- ... 28 like lines cut -->
		</Nodes>
		<Elements type="hex8" mat="1" name="Part12">
			<elem id="1">     1,     5,     7,     3,     2,     6,     8,     4</elem>
			<elem id="2">     5,     9,    11,     7,     6,    10,    12,     8</elem>
			<elem id="3">     9,    13,    15,    11,    10,    14,    16,    12</elem>
			<elem id="4">    13,    17,    19,    15,    14,    18,    20,    16</elem>
			<elem id="5">    17,    21,    23,    19,    18,    22,    24,    20</elem>
			<elem id="6">    21,    25,    27,    23,    22,    26,    28,    24</elem>
			<elem id="7">    25,    29,    31,    27,    26,    30,    32,    28</elem>
			<elem id="8">    29,    33,    35,    31,    30,    34,    36,    32</elem>
			<elem id="9">    33,    37,    39,    35,    34,    38,    40,    36</elem>
			<elem id="10">    37,    41,    43,    39,    38,    42,    44,    40</elem>
			<elem id="11">    41,    45,    47,    43,    42,    46,    48,    44</elem>
		</Elements>
		<NodeSet name="FixedDisplacement01">
			<node id="1"/>
			<node id="2"/>
			<node id="3"/>
			<node id="4"/>
		</NodeSet>
		<NodeSet name="FixedDisplacement02">
			<node id="1"/>
			<node id="2"/>
			<node id="3"/>
			<node id="4"/>
		</NodeSet>
		<NodeSet name="FixedDisplacement03">
			<node id="1"/>
			<node id="2"/>
			<node id="3"/>
			<node id="4"/>
		</NodeSet>
		<Surface name="PressureLoad1">
			<quad4 id="1">    45,    47,    48,    46</quad4>
		</Surface>
		<ElementSet name="unnamed_set01">
			<elem id="1"/>
		</ElementSet>
	</Geometry>
	<Boundary>
		<fix bc="z" node_set="FixedDisplacement01"/>
		<fix bc="y" node_set="FixedDisplacement02"/>
		<fix bc="x" node_set="FixedDisplacement03"/>
	</Boundary>
	<Loads>
		<surface_load type="pressure" surface="PressureLoad1">
			<pressure lc="1">-1</pressure>
			<linear>0</linear>
		</surface_load>
	</Loads>
	<LoadData>
		<loadcurve id="1" type="smooth">
			<point>0,0</point>
			<point>1,0.1</point>
		</loadcurve>
	</LoadData>
	<Output>
		<plotfile type="febio">
			<var type="displacement"/>
			<var type="stress"/>
		</plotfile>
		<logfile>
			<element_data data="sy" elem_set="unnamed_set01"/>
		</logfile>
	</Output>
</febio_spec>
