<?xml version="1.0" encoding="ISO-8859-1"?>
<febio_spec version="2.5">
	<Module type="solid"/>
	<Control>
		<time_steps>1000</time_steps>
		<step_size>0.1</step_size>
		<max_refs>25</max_refs>
		<max_ups>0</max_ups>
		<diverge_reform>1</diverge_reform>
		<reform_each_time_step>1</reform_each_time_step>
		<dtol>0.001</dtol>
		<etol>0.01</etol>
		<rtol>0</rtol>
		<lstol>0.9</lstol>
		<min_residual>1e-020</min_residual>
		<qnmethod>0</qnmethod>
		<time_stepper>
			<dtmin>0.01</dtmin>
			<dtmax lc="1"></dtmax>
			<max_retries>5</max_retries>
			<opt_iter>10</opt_iter>
		</time_stepper>
		<analysis type="static"/>
	</Control>
	<Globals>
		<Constants>
			<T>0</T>
			<R>0</R>
			<Fc>0</Fc>
		</Constants>
	</Globals>
	<Material>
		<material id="1" name="Ogden Viscoelastic" type="uncoupled viscoelastic">
			<g1>1</g1>
			<g2>0</g2>
			<g3>0</g3>
			<g4>0</g4>
			<g5>0</g5>
			<g6>0</g6>
			<t1>1</t1>
			<t2>0</t2>
			<t3>0</t3>
			<t4>0</t4>
			<t5>0</t5>
			<t6>0</t6>
			<k>1000</k>
			<elastic type="Ogden">
				<density>1</density>
				<c1>1</c1>
				<c2>0</c2>
				<c3>0</c3>
				<c4>0</c4>
				<c5>0</c5>
				<c6>0</c6>
				<m1>3</m1>
				<m2>1</m2>
				<m3>1</m3>
				<m4>1</m4>
				<m5>1</m5>
				<m6>1</m6>
			</elastic>
		</material>
	</Material>
	<Geometry>
		<Nodes name="ma16">
			<node id="1">-5.0000000e-001,-5.0000000e-001, 0.0000000e+000</node>
			<node id="2">-5.0000000e-001,-5.0000000e-001, 5.0000000e-001</node>
			<node id="3">-5.0000000e-001,-5.0000000e-001, 1.0000000e+000</node>
			<node id="4">-5.0000000e-001,-5.0000000e-001, 1.5000000e+000</node>
			<node id="5">-5.0000000e-001,-5.0000000e-001, 2.0000000e+000</node>
			<node id="6">-5.0000000e-001,-5.0000000e-001, 2.5000000e+000</node>
			<node id="7">-5.0000000e-001,-5.0000000e-001, 3.0000000e+000</node>
			<node id="8">-5.0000000e-001,-5.0000000e-001, 3.5000000e+000</node>
			<node id="9">-5.0000000e-001,-5.0000000e-001, 4.0000000e+000</node>
			<node id="10">-5.0000000e-001,-5.0000000e-001, 4.5000000e+000</node>
			<node id="11">-5.0000000e-001,-5.0000000e-001, 5.0000000e+000</node>
			<node id="12">-5.0000000e-001,-5.0000000e-001, 5.5000000e+000</node>
			<node id="13">-5.0000000e-001,-5.0000000e-001, 6.0000000e+000</node>
			<node id="14">-5.0000000e-001,-5.0000000e-001, 6.5000000e+000</node>
			<node id="15">-5.0000000e-001,-5.0000000e-001, 7.0000000e+000</node>
			<node id="16">-5.0000000e-001,-5.0000000e-001, 7.5000000e+000</node>
			<node id="17">-5.0000000e-001,-5.0000000e-001, 8.0000000e+000</node>
			<node id="18">-5.0000000e-001,-5.0000000e-001, 8.5000000e+000</node>
			<node id="19">-5.0000000e-001,-5.0000000e-001, 9.0000000e+000</node>
			<node id="20">-5.0000000e-001,-5.0000000e-001, 9.5000000e+000</node>
<!-- ... 169 like lines cut -->
		</Nodes>
		<Elements type="hex8" mat="1" name="Part13">
			<elem id="1">     1,    64,    85,    22,     2,    65,    86,    23</elem>
			<elem id="2">     2,    65,    86,    23,     3,    66,    87,    24</elem>
			<elem id="3">     3,    66,    87,    24,     4,    67,    88,    25</elem>
			<elem id="4">     4,    67,    88,    25,     5,    68,    89,    26</elem>
			<elem id="5">     5,    68,    89,    26,     6,    69,    90,    27</elem>
			<elem id="6">     6,    69,    90,    27,     7,    70,    91,    28</elem>
			<elem id="7">     7,    70,    91,    28,     8,    71,    92,    29</elem>
			<elem id="8">     8,    71,    92,    29,     9,    72,    93,    30</elem>
			<elem id="9">     9,    72,    93,    30,    10,    73,    94,    31</elem>
			<elem id="10">    10,    73,    94,    31,    11,    74,    95,    32</elem>
			<elem id="11">    11,    74,    95,    32,    12,    75,    96,    33</elem>
			<elem id="12">    12,    75,    96,    33,    13,    76,    97,    34</elem>
			<elem id="13">    13,    76,    97,    34,    14,    77,    98,    35</elem>
			<elem id="14">    14,    77,    98,    35,    15,    78,    99,    36</elem>
			<elem id="15">    15,    78,    99,    36,    16,    79,   100,    37</elem>
			<elem id="16">    16,    79,   100,    37,    17,    80,   101,    38</elem>
			<elem id="17">    17,    80,   101,    38,    18,    81,   102,    39</elem>
			<elem id="18">    18,    81,   102,    39,    19,    82,   103,    40</elem>
			<elem id="19">    19,    82,   103,    40,    20,    83,   104,    41</elem>
			<elem id="20">    20,    83,   104,    41,    21,    84,   105,    42</elem>
<!-- ... 60 like lines cut -->
		</Elements>
		<NodeSet name="FixedDisplacement01">
			<node id="1"/>
			<node id="22"/>
			<node id="43"/>
			<node id="64"/>
			<node id="85"/>
			<node id="106"/>
			<node id="127"/>
			<node id="148"/>
			<node id="169"/>
		</NodeSet>
		<NodeSet name="FixedDisplacement02">
			<node id="1"/>
			<node id="22"/>
			<node id="43"/>
			<node id="64"/>
			<node id="85"/>
			<node id="106"/>
			<node id="127"/>
			<node id="148"/>
			<node id="169"/>
		</NodeSet>
		<NodeSet name="FixedDisplacement03">
			<node id="1"/>
			<node id="22"/>
			<node id="43"/>
			<node id="64"/>
			<node id="85"/>
			<node id="106"/>
			<node id="127"/>
			<node id="148"/>
			<node id="169"/>
		</NodeSet>
		<Surface name="surface01">
			<quad4 id="1">   106,    43,    44,   107</quad4>
			<quad4 id="2">   107,    44,    45,   108</quad4>
			<quad4 id="3">   108,    45,    46,   109</quad4>
			<quad4 id="4">   109,    46,    47,   110</quad4>
			<quad4 id="5">   110,    47,    48,   111</quad4>
			<quad4 id="6">   111,    48,    49,   112</quad4>
			<quad4 id="7">   112,    49,    50,   113</quad4>
			<quad4 id="8">   113,    50,    51,   114</quad4>
			<quad4 id="9">   114,    51,    52,   115</quad4>
			<quad4 id="10">   115,    52,    53,   116</quad4>
			<quad4 id="11">   116,    53,    54,   117</quad4>
			<quad4 id="12">   117,    54,    55,   118</quad4>
			<quad4 id="13">   118,    55,    56,   119</quad4>
			<quad4 id="14">   119,    56,    57,   120</quad4>
			<quad4 id="15">   120,    57,    58,   121</quad4>
			<quad4 id="16">   121,    58,    59,   122</quad4>
			<quad4 id="17">   122,    59,    60,   123</quad4>
			<quad4 id="18">   123,    60,    61,   124</quad4>
			<quad4 id="19">   124,    61,    62,   125</quad4>
			<quad4 id="20">   125,    62,    63,   126</quad4>
<!-- ... 20 like lines cut -->
		</Surface>
		<ElementSet name="unnamed_set01">
			<elem id="21"/>
		</ElementSet>
	</Geometry>
	<Boundary>
		<fix bc="z" node_set="FixedDisplacement01"/>
		<fix bc="y" node_set="FixedDisplacement02"/>
		<fix bc="x" node_set="FixedDisplacement03"/>
	</Boundary>
	<Loads>
		<surface_load type="traction" surface="surface01">
			<scale lc="2">1</scale>
			<traction>0,1,0</traction>
		</surface_load>
	</Loads>
	<LoadData>
		<loadcurve id="1" type="step">
			<point>0,0</point>
			<point>2,0.1</point>
			<point>10,1</point>
			<point>100,10</point>
		</loadcurve>
		<loadcurve id="2" type="smooth">
			<point>0,0</point>
			<point>1,-0.0002</point>
		</loadcurve>
	</LoadData>
	<Output>
		<plotfile type="febio">
			<var type="displacement"/>
			<var type="relative volume"/>
			<var type="stress"/>
		</plotfile>
		<logfile>
			<element_data data="sx" elem_set="unnamed_set01"/>
		</logfile>
	</Output>
</febio_spec>
