<?xml version="1.0" encoding="ISO-8859-1"?>
<febio_spec version="2.5">
	<Module type="biphasic"/>
	<Control>
		<time_steps>45000</time_steps>
		<step_size>0.01</step_size>
		<max_refs>50</max_refs>
		<max_ups>20</max_ups>
		<diverge_reform>1</diverge_reform>
		<reform_each_time_step>1</reform_each_time_step>
		<dtol>0.002</dtol>
		<etol>0.001</etol>
		<rtol>0</rtol>
		<ptol>0.01</ptol>
		<lstol>0.9</lstol>
		<min_residual>1e-020</min_residual>
		<qnmethod>0</qnmethod>
		<time_stepper>
			<dtmin>5e-005</dtmin>
			<dtmax lc="1"></dtmax>
			<max_retries>10</max_retries>
			<opt_iter>50</opt_iter>
		</time_stepper>
	</Control>
	<Globals>
		<Constants>
			<T>0</T>
			<R>0</R>
			<Fc>0</Fc>
		</Constants>
	</Globals>
	<Material>
		<material id="1" name="Material1" type="biphasic">
			<phi0>0.3</phi0>
			<fluid_density>1</fluid_density>
			<solid type="PRLig">
				<density>1</density>
				<c1>90</c1>
				<c2>160</c2>
				<v0>5.85</v0>
				<m>-100</m>
				<mu>0.025</mu>
				<k>1.55</k>
				<mat_axis type="vector">
					<a>0,0,1</a>
					<d>1,0,0</d>
				</mat_axis>
			</solid>
			<permeability type="perm-Holmes-Mow">
				<perm>0.003</perm>
				<M>8</M>
				<alpha>2</alpha>
			</permeability>
		</material>
	</Material>
	<Geometry>
		<Nodes name="ma17">
			<node id="1"> 0.0000000e+000, 0.0000000e+000, 0.0000000e+000</node>
			<node id="2"> 9.8606363e-002, 0.0000000e+000, 0.0000000e+000</node>
			<node id="3"> 9.8066187e-002, 1.0307171e-002, 0.0000000e+000</node>
			<node id="4"> 9.6451577e-002, 2.0501415e-002, 0.0000000e+000</node>
			<node id="5"> 9.3780224e-002, 3.0471041e-002, 0.0000000e+000</node>
			<node id="6"> 9.0081395e-002, 4.0106820e-002, 0.0000000e+000</node>
			<node id="7"> 8.5395616e-002, 4.9303181e-002, 0.0000000e+000</node>
			<node id="8"> 7.9774224e-002, 5.7959365e-002, 0.0000000e+000</node>
			<node id="9"> 7.3278809e-002, 6.5980534e-002, 0.0000000e+000</node>
			<node id="10"> 6.5980536e-002, 7.3278807e-002, 0.0000000e+000</node>
			<node id="11"> 5.7959367e-002, 7.9774222e-002, 0.0000000e+000</node>
			<node id="12"> 4.9303183e-002, 8.5395614e-002, 0.0000000e+000</node>
			<node id="13"> 4.0106823e-002, 9.0081394e-002, 0.0000000e+000</node>
			<node id="14"> 3.0471044e-002, 9.3780223e-002, 0.0000000e+000</node>
			<node id="15"> 2.0501418e-002, 9.6451577e-002, 0.0000000e+000</node>
			<node id="16"> 1.0307174e-002, 9.8066187e-002, 0.0000000e+000</node>
			<node id="17"> 2.6421473e-009, 9.8606363e-002, 0.0000000e+000</node>
			<node id="18"> 1.8932422e-001, 0.0000000e+000, 0.0000000e+000</node>
			<node id="19"> 1.8828708e-001, 1.9789769e-002, 0.0000000e+000</node>
			<node id="20"> 1.8518703e-001, 3.9362717e-002, 0.0000000e+000</node>
<!-- ... 622 like lines cut -->
		</Nodes>
		<Elements type="penta6" mat="1" name="Part1">
			<elem id="1">     1,     2,     3,   322,   323,   324</elem>
			<elem id="2">     1,     3,     4,   322,   324,   325</elem>
			<elem id="3">     1,     4,     5,   322,   325,   326</elem>
			<elem id="4">     1,     5,     6,   322,   326,   327</elem>
			<elem id="5">     1,     6,     7,   322,   327,   328</elem>
			<elem id="6">     1,     7,     8,   322,   328,   329</elem>
			<elem id="7">     1,     8,     9,   322,   329,   330</elem>
			<elem id="8">     1,     9,    10,   322,   330,   331</elem>
			<elem id="9">     1,    10,    11,   322,   331,   332</elem>
			<elem id="10">     1,    11,    12,   322,   332,   333</elem>
			<elem id="11">     1,    12,    13,   322,   333,   334</elem>
			<elem id="12">     1,    13,    14,   322,   334,   335</elem>
			<elem id="13">     1,    14,    15,   322,   335,   336</elem>
			<elem id="14">     1,    15,    16,   322,   336,   337</elem>
			<elem id="15">     1,    16,    17,   322,   337,   338</elem>
		</Elements>
		<Elements type="hex8" mat="1" name="Part1">
			<elem id="16">     2,    18,    19,     3,   323,   339,   340,   324</elem>
			<elem id="17">     3,    19,    20,     4,   324,   340,   341,   325</elem>
			<elem id="18">     4,    20,    21,     5,   325,   341,   342,   326</elem>
			<elem id="19">     5,    21,    22,     6,   326,   342,   343,   327</elem>
			<elem id="20">     6,    22,    23,     7,   327,   343,   344,   328</elem>
			<elem id="21">     7,    23,    24,     8,   328,   344,   345,   329</elem>
			<elem id="22">     8,    24,    25,     9,   329,   345,   346,   330</elem>
			<elem id="23">     9,    25,    26,    10,   330,   346,   347,   331</elem>
			<elem id="24">    10,    26,    27,    11,   331,   347,   348,   332</elem>
			<elem id="25">    11,    27,    28,    12,   332,   348,   349,   333</elem>
			<elem id="26">    12,    28,    29,    13,   333,   349,   350,   334</elem>
			<elem id="27">    13,    29,    30,    14,   334,   350,   351,   335</elem>
			<elem id="28">    14,    30,    31,    15,   335,   351,   352,   336</elem>
			<elem id="29">    15,    31,    32,    16,   336,   352,   353,   337</elem>
			<elem id="30">    16,    32,    33,    17,   337,   353,   354,   338</elem>
			<elem id="31">    18,    34,    35,    19,   339,   355,   356,   340</elem>
			<elem id="32">    19,    35,    36,    20,   340,   356,   357,   341</elem>
			<elem id="33">    20,    36,    37,    21,   341,   357,   358,   342</elem>
			<elem id="34">    21,    37,    38,    22,   342,   358,   359,   343</elem>
			<elem id="35">    22,    38,    39,    23,   343,   359,   360,   344</elem>
<!-- ... 265 like lines cut -->
		</Elements>
		<NodeSet name="FixedDisplacement01">
			<node id="1"/>
			<node id="2"/>
			<node id="3"/>
			<node id="4"/>
			<node id="5"/>
			<node id="6"/>
			<node id="7"/>
			<node id="8"/>
			<node id="9"/>
			<node id="10"/>
			<node id="11"/>
			<node id="12"/>
			<node id="13"/>
			<node id="14"/>
			<node id="15"/>
			<node id="16"/>
			<node id="17"/>
			<node id="18"/>
			<node id="19"/>
			<node id="20"/>
<!-- ... 301 like lines cut -->
		</NodeSet>
		<NodeSet name="FixedDisplacement02">
			<node id="1"/>
			<node id="2"/>
			<node id="18"/>
			<node id="34"/>
			<node id="50"/>
			<node id="66"/>
			<node id="82"/>
			<node id="98"/>
			<node id="114"/>
			<node id="130"/>
			<node id="146"/>
			<node id="162"/>
			<node id="178"/>
			<node id="194"/>
			<node id="210"/>
			<node id="226"/>
			<node id="242"/>
			<node id="258"/>
			<node id="274"/>
			<node id="290"/>
<!-- ... 22 like lines cut -->
		</NodeSet>
		<NodeSet name="FixedDisplacement03">
			<node id="1"/>
			<node id="17"/>
			<node id="33"/>
			<node id="49"/>
			<node id="65"/>
			<node id="81"/>
			<node id="97"/>
			<node id="113"/>
			<node id="129"/>
			<node id="145"/>
			<node id="161"/>
			<node id="177"/>
			<node id="193"/>
			<node id="209"/>
			<node id="225"/>
			<node id="241"/>
			<node id="257"/>
			<node id="273"/>
			<node id="289"/>
			<node id="305"/>
<!-- ... 22 like lines cut -->
		</NodeSet>
		<NodeSet name="FixedFluidPressure01">
			<node id="306"/>
			<node id="307"/>
			<node id="308"/>
			<node id="309"/>
			<node id="310"/>
			<node id="311"/>
			<node id="312"/>
			<node id="313"/>
			<node id="314"/>
			<node id="315"/>
			<node id="316"/>
			<node id="317"/>
			<node id="318"/>
			<node id="319"/>
			<node id="320"/>
			<node id="321"/>
			<node id="627"/>
			<node id="628"/>
			<node id="629"/>
			<node id="630"/>
<!-- ... 12 like lines cut -->
		</NodeSet>
		<NodeSet name="PrescribedBC144">
			<node id="322"/>
			<node id="323"/>
			<node id="324"/>
			<node id="325"/>
			<node id="326"/>
			<node id="327"/>
			<node id="328"/>
			<node id="329"/>
			<node id="330"/>
			<node id="331"/>
			<node id="332"/>
			<node id="333"/>
			<node id="334"/>
			<node id="335"/>
			<node id="336"/>
			<node id="337"/>
			<node id="338"/>
			<node id="339"/>
			<node id="340"/>
			<node id="341"/>
<!-- ... 301 like lines cut -->
		</NodeSet>
		<ElementSet name="unnamed_set01">
			<elem id="1"/>
		</ElementSet>
	</Geometry>
	<Boundary>
		<fix bc="z" node_set="FixedDisplacement01"/>
		<fix bc="y" node_set="FixedDisplacement02"/>
		<fix bc="x" node_set="FixedDisplacement03"/>
		<fix bc="p" node_set="FixedFluidPressure01"/>
		<prescribe bc="z" node_set="PrescribedBC144">
			<scale lc="2">1</scale>
			<relative>0</relative>
		</prescribe>
	</Boundary>
	<LoadData>
		<loadcurve id="1" type="linear">
			<point>0,0</point>
			<point>8,0.05</point>
			<point>10,0.5</point>
			<point>450,2.5</point>
		</loadcurve>
		<loadcurve id="2" type="linear">
			<point>0,0</point>
			<point>6,0.03</point>
			<point>450,0.03</point>
		</loadcurve>
	</LoadData>
	<Output>
		<plotfile type="febio">
			<var type="displacement"/>
			<var type="reaction forces"/>
			<var type="relative volume"/>
			<var type="stress"/>
			<var type="effective fluid pressure"/>
			<var type="fluid flux"/>
		</plotfile>
		<logfile>
			<element_data data="sz" elem_set="unnamed_set01"/>
		</logfile>
	</Output>
</febio_spec>
