<?xml version="1.0" encoding="ISO-8859-1"?>
<!--
Problem Description:
	Confined compression creep loading of a cube made of a
	biphasic material with porous	neo-Hookean solid matrix.
Main Features:
	Porous neo-Hookean solid in a biphasic material
Secondary Features:
	Biphasic analysis
Materials:
	porous neo-Hookean
	Holmes-Mow permeability
	biphasic
Degrees of Freedom: 160
Results:
	Steps Completed: 69
	Equilibrium Iterations: 218
	Right Hand Evaluations: 288
	Siffness Reformations: 69
	Other:
Comments:
	Final creep deformation (Z-displacement of node 21) is -0.645891
-->
<febio_spec version="2.5">
	<Module type="biphasic"/>
	<Control>
		<time_steps>80000</time_steps>
		<step_size>0.1</step_size>
		<max_refs>15</max_refs>
		<max_ups>10</max_ups>
		<diverge_reform>1</diverge_reform>
		<reform_each_time_step>1</reform_each_time_step>
		<dtol>0.001</dtol>
		<etol>0.01</etol>
		<rtol>0</rtol>
		<ptol>0.01</ptol>
		<lstol>0.9</lstol>
		<min_residual>1e-20</min_residual>
		<qnmethod>1</qnmethod>
		<time_stepper>
			<dtmin>0.01</dtmin>
			<dtmax lc="1"></dtmax>
			<max_retries>5</max_retries>
			<opt_iter>10</opt_iter>
		</time_stepper>
		<symmetric_biphasic>0</symmetric_biphasic>
	</Control>
	<Globals>
		<Constants>
			<T>0</T>
			<R>0</R>
			<Fc>0</Fc>
		</Constants>
	</Globals>
	<Material>
		<material id="1" name="Material1" type="biphasic">
			<phi0>0.2</phi0>
			<fluid_density>1</fluid_density>
			<solid type="porous neo-Hookean">
				<density>1</density>
				<E>0.5</E>
			</solid>
			<permeability type="perm-Holmes-Mow">
				<perm>0.005</perm>
				<M>5</M>
				<alpha>2</alpha>
			</permeability>
		</material>
	</Material>
	<Geometry>
		<Nodes name="Object01">
			<node id="1"> -5.0000000e-01, -5.0000000e-01,  0.0000000e+00</node>
			<node id="2"> -5.0000000e-01, -5.0000000e-01,  1.7419367e-01</node>
			<node id="3"> -5.0000000e-01, -5.0000000e-01,  3.1877442e-01</node>
			<node id="4"> -5.0000000e-01, -5.0000000e-01,  4.3877643e-01</node>
			<node id="5"> -5.0000000e-01, -5.0000000e-01,  5.3837811e-01</node>
			<node id="6"> -5.0000000e-01, -5.0000000e-01,  6.2104750e-01</node>
			<node id="7"> -5.0000000e-01, -5.0000000e-01,  6.8966310e-01</node>
			<node id="8"> -5.0000000e-01, -5.0000000e-01,  7.4661404e-01</node>
			<node id="9"> -5.0000000e-01, -5.0000000e-01,  7.9388332e-01</node>
			<node id="10"> -5.0000000e-01, -5.0000000e-01,  8.3311683e-01</node>
			<node id="11"> -5.0000000e-01, -5.0000000e-01,  8.6568064e-01</node>
			<node id="12"> -5.0000000e-01, -5.0000000e-01,  8.9270860e-01</node>
			<node id="13"> -5.0000000e-01, -5.0000000e-01,  9.1514181e-01</node>
			<node id="14"> -5.0000000e-01, -5.0000000e-01,  9.3376137e-01</node>
			<node id="15"> -5.0000000e-01, -5.0000000e-01,  9.4921561e-01</node>
			<node id="16"> -5.0000000e-01, -5.0000000e-01,  9.6204262e-01</node>
			<node id="17"> -5.0000000e-01, -5.0000000e-01,  9.7268905e-01</node>
			<node id="18"> -5.0000000e-01, -5.0000000e-01,  9.8152558e-01</node>
			<node id="19"> -5.0000000e-01, -5.0000000e-01,  9.8885990e-01</node>
			<node id="20"> -5.0000000e-01, -5.0000000e-01,  9.9494739e-01</node>
<!-- ... 64 like lines cut -->
		</Nodes>
		<Elements type="hex8" mat="1" name="Part1">
			<elem id="1">     1,    43,    64,    22,     2,    44,    65,    23</elem>
			<elem id="2">     2,    44,    65,    23,     3,    45,    66,    24</elem>
			<elem id="3">     3,    45,    66,    24,     4,    46,    67,    25</elem>
			<elem id="4">     4,    46,    67,    25,     5,    47,    68,    26</elem>
			<elem id="5">     5,    47,    68,    26,     6,    48,    69,    27</elem>
			<elem id="6">     6,    48,    69,    27,     7,    49,    70,    28</elem>
			<elem id="7">     7,    49,    70,    28,     8,    50,    71,    29</elem>
			<elem id="8">     8,    50,    71,    29,     9,    51,    72,    30</elem>
			<elem id="9">     9,    51,    72,    30,    10,    52,    73,    31</elem>
			<elem id="10">    10,    52,    73,    31,    11,    53,    74,    32</elem>
			<elem id="11">    11,    53,    74,    32,    12,    54,    75,    33</elem>
			<elem id="12">    12,    54,    75,    33,    13,    55,    76,    34</elem>
			<elem id="13">    13,    55,    76,    34,    14,    56,    77,    35</elem>
			<elem id="14">    14,    56,    77,    35,    15,    57,    78,    36</elem>
			<elem id="15">    15,    57,    78,    36,    16,    58,    79,    37</elem>
			<elem id="16">    16,    58,    79,    37,    17,    59,    80,    38</elem>
			<elem id="17">    17,    59,    80,    38,    18,    60,    81,    39</elem>
			<elem id="18">    18,    60,    81,    39,    19,    61,    82,    40</elem>
			<elem id="19">    19,    61,    82,    40,    20,    62,    83,    41</elem>
			<elem id="20">    20,    62,    83,    41,    21,    63,    84,    42</elem>
		</Elements>
		<NodeSet name="FixedDisplacement1">
			<node id="1"/>
			<node id="2"/>
			<node id="3"/>
			<node id="4"/>
			<node id="5"/>
			<node id="6"/>
			<node id="7"/>
			<node id="8"/>
			<node id="9"/>
			<node id="10"/>
			<node id="11"/>
			<node id="12"/>
			<node id="13"/>
			<node id="14"/>
			<node id="15"/>
			<node id="16"/>
			<node id="17"/>
			<node id="18"/>
			<node id="19"/>
			<node id="20"/>
<!-- ... 148 like lines cut -->
		</NodeSet>
		<NodeSet name="FixedDisplacement2">
			<node id="1"/>
			<node id="2"/>
			<node id="3"/>
			<node id="4"/>
			<node id="5"/>
			<node id="6"/>
			<node id="7"/>
			<node id="8"/>
			<node id="9"/>
			<node id="10"/>
			<node id="11"/>
			<node id="12"/>
			<node id="13"/>
			<node id="14"/>
			<node id="15"/>
			<node id="16"/>
			<node id="17"/>
			<node id="18"/>
			<node id="19"/>
			<node id="20"/>
<!-- ... 148 like lines cut -->
		</NodeSet>
		<NodeSet name="FixedDisplacement3">
			<node id="1"/>
			<node id="22"/>
			<node id="43"/>
			<node id="64"/>
		</NodeSet>
		<NodeSet name="FixedEffectiveFluidPressure1">
			<node id="21"/>
			<node id="42"/>
			<node id="63"/>
			<node id="84"/>
		</NodeSet>
		<Surface name="MixtureNormalTraction1">
			<quad4 id="1">    21,    63,    84,    42</quad4>
		</Surface>
	</Geometry>
	<Boundary>
		<fix bc="x" node_set="FixedDisplacement1"/>
		<fix bc="y" node_set="FixedDisplacement2"/>
		<fix bc="z" node_set="FixedDisplacement3"/>
		<fix bc="p" node_set="FixedEffectiveFluidPressure1"/>
	</Boundary>
	<Loads>
		<surface_load type="normal_traction" surface="MixtureNormalTraction1">
			<traction lc="2">-1</traction>
			<linear>0</linear>
			<effective>0</effective>
		</surface_load>
	</Loads>
	<LoadData>
		<loadcurve id="1" type="step">
			<point>0,0</point>
			<point>1,0.1</point>
			<point>2,0.1</point>
			<point>10,1</point>
			<point>100,10</point>
			<point>1000,100</point>
			<point>10000,1000</point>
		</loadcurve>
		<loadcurve id="2" type="smooth">
			<point>0,0</point>
			<point>1,1</point>
		</loadcurve>
	</LoadData>
	<Output>
		<plotfile type="febio">
			<var type="displacement"/>
			<var type="relative volume"/>
			<var type="stress"/>
			<var type="effective fluid pressure"/>
			<var type="fluid pressure"/>
			<var type="fluid flux"/>
		</plotfile>
	</Output>
</febio_spec>
