<?xml version="1.0" encoding="ISO-8859-1"?>
<febio_spec version="2.5">
	<Module type="solid"/>
	<Control>
		<time_steps>10</time_steps>
		<step_size>0.1</step_size>
		<max_refs>15</max_refs>
		<max_ups>10</max_ups>
		<diverge_reform>1</diverge_reform>
		<reform_each_time_step>1</reform_each_time_step>
		<dtol>0.001</dtol>
		<etol>0.01</etol>
		<rtol>0</rtol>
		<lstol>0.9</lstol>
		<min_residual>1e-020</min_residual>
		<qnmethod>0</qnmethod>
		<time_stepper>
			<dtmin>0.01</dtmin>
			<dtmax>0.1</dtmax>
			<max_retries>5</max_retries>
			<opt_iter>10</opt_iter>
		</time_stepper>
		<analysis type="static"/>
	</Control>
	<Globals>
		<Constants>
			<T>0</T>
			<R>0</R>
			<Fc>0</Fc>
		</Constants>
	</Globals>
	<Material>
		<material id="1" name="Material 1" type="Mooney-Rivlin">
			<density>1</density>
			<c1>1</c1>
			<c2>0</c2>
			<k>100</k>
		</material>
	</Material>
	<Geometry>
		<Nodes name="mi27">
			<node id="1">-1.0000000e+000,-5.0000000e-001, 0.0000000e+000</node>
			<node id="2">-1.0000000e+000,-5.0000000e-001, 2.0000000e-001</node>
			<node id="3">-1.0000000e+000,-5.0000000e-001, 4.0000000e-001</node>
			<node id="4">-1.0000000e+000,-5.0000000e-001, 6.0000000e-001</node>
			<node id="5">-1.0000000e+000,-5.0000000e-001, 8.0000000e-001</node>
			<node id="6">-1.0000000e+000,-5.0000000e-001, 1.0000000e+000</node>
			<node id="7">-1.0000000e+000,-3.0000000e-001, 0.0000000e+000</node>
			<node id="8">-1.0000000e+000,-3.0000000e-001, 2.0000000e-001</node>
			<node id="9">-1.0000000e+000,-3.0000000e-001, 4.0000000e-001</node>
			<node id="10">-1.0000000e+000,-3.0000000e-001, 6.0000000e-001</node>
			<node id="11">-1.0000000e+000,-3.0000000e-001, 8.0000000e-001</node>
			<node id="12">-1.0000000e+000,-3.0000000e-001, 1.0000000e+000</node>
			<node id="13">-1.0000000e+000,-1.0000000e-001, 0.0000000e+000</node>
			<node id="14">-1.0000000e+000,-1.0000000e-001, 2.0000000e-001</node>
			<node id="15">-1.0000000e+000,-1.0000000e-001, 4.0000000e-001</node>
			<node id="16">-1.0000000e+000,-1.0000000e-001, 6.0000000e-001</node>
			<node id="17">-1.0000000e+000,-1.0000000e-001, 8.0000000e-001</node>
			<node id="18">-1.0000000e+000,-1.0000000e-001, 1.0000000e+000</node>
			<node id="19">-1.0000000e+000, 1.0000000e-001, 0.0000000e+000</node>
			<node id="20">-1.0000000e+000, 1.0000000e-001, 2.0000000e-001</node>
<!-- ... 376 like lines cut -->
		</Nodes>
		<Elements type="hex8" mat="1" name="Part10">
			<elem id="1">     1,    37,    43,     7,     2,    38,    44,     8</elem>
			<elem id="2">     2,    38,    44,     8,     3,    39,    45,     9</elem>
			<elem id="3">     3,    39,    45,     9,     4,    40,    46,    10</elem>
			<elem id="4">     4,    40,    46,    10,     5,    41,    47,    11</elem>
			<elem id="5">     5,    41,    47,    11,     6,    42,    48,    12</elem>
			<elem id="6">     7,    43,    49,    13,     8,    44,    50,    14</elem>
			<elem id="7">     8,    44,    50,    14,     9,    45,    51,    15</elem>
			<elem id="8">     9,    45,    51,    15,    10,    46,    52,    16</elem>
			<elem id="9">    10,    46,    52,    16,    11,    47,    53,    17</elem>
			<elem id="10">    11,    47,    53,    17,    12,    48,    54,    18</elem>
			<elem id="11">    13,    49,    55,    19,    14,    50,    56,    20</elem>
			<elem id="12">    14,    50,    56,    20,    15,    51,    57,    21</elem>
			<elem id="13">    15,    51,    57,    21,    16,    52,    58,    22</elem>
			<elem id="14">    16,    52,    58,    22,    17,    53,    59,    23</elem>
			<elem id="15">    17,    53,    59,    23,    18,    54,    60,    24</elem>
			<elem id="16">    19,    55,    61,    25,    20,    56,    62,    26</elem>
			<elem id="17">    20,    56,    62,    26,    21,    57,    63,    27</elem>
			<elem id="18">    21,    57,    63,    27,    22,    58,    64,    28</elem>
			<elem id="19">    22,    58,    64,    28,    23,    59,    65,    29</elem>
			<elem id="20">    23,    59,    65,    29,    24,    60,    66,    30</elem>
<!-- ... 230 like lines cut -->
		</Elements>
		<NodeSet name="FixedDisplacement01">
			<node id="1"/>
			<node id="2"/>
			<node id="3"/>
			<node id="4"/>
			<node id="5"/>
			<node id="6"/>
			<node id="7"/>
			<node id="8"/>
			<node id="9"/>
			<node id="10"/>
			<node id="11"/>
			<node id="12"/>
			<node id="13"/>
			<node id="14"/>
			<node id="15"/>
			<node id="16"/>
			<node id="17"/>
			<node id="18"/>
			<node id="19"/>
			<node id="20"/>
<!-- ... 16 like lines cut -->
		</NodeSet>
		<NodeSet name="FixedDisplacement02">
			<node id="1"/>
			<node id="2"/>
			<node id="3"/>
			<node id="4"/>
			<node id="5"/>
			<node id="6"/>
			<node id="37"/>
			<node id="38"/>
			<node id="39"/>
			<node id="40"/>
			<node id="41"/>
			<node id="42"/>
			<node id="73"/>
			<node id="74"/>
			<node id="75"/>
			<node id="76"/>
			<node id="77"/>
			<node id="78"/>
			<node id="109"/>
			<node id="110"/>
<!-- ... 46 like lines cut -->
		</NodeSet>
		<NodeSet name="FixedDisplacement03">
			<node id="1"/>
			<node id="7"/>
			<node id="13"/>
			<node id="19"/>
			<node id="25"/>
			<node id="31"/>
			<node id="37"/>
			<node id="43"/>
			<node id="49"/>
			<node id="55"/>
			<node id="61"/>
			<node id="67"/>
			<node id="73"/>
			<node id="79"/>
			<node id="85"/>
			<node id="91"/>
			<node id="97"/>
			<node id="103"/>
			<node id="109"/>
			<node id="115"/>
<!-- ... 46 like lines cut -->
		</NodeSet>
		<NodeSet name="PrescribedBC163">
			<node id="361"/>
			<node id="362"/>
			<node id="363"/>
			<node id="364"/>
			<node id="365"/>
			<node id="366"/>
			<node id="367"/>
			<node id="368"/>
			<node id="369"/>
			<node id="370"/>
			<node id="371"/>
			<node id="372"/>
			<node id="373"/>
			<node id="374"/>
			<node id="375"/>
			<node id="376"/>
			<node id="377"/>
			<node id="378"/>
			<node id="379"/>
			<node id="380"/>
<!-- ... 16 like lines cut -->
		</NodeSet>
		<ElementSet name="unnamed_set01">
			<elem id="2"/>
		</ElementSet>
	</Geometry>
	<Boundary>
		<fix bc="x" node_set="FixedDisplacement01"/>
		<fix bc="y" node_set="FixedDisplacement02"/>
		<fix bc="z" node_set="FixedDisplacement03"/>
		<prescribe bc="x" node_set="PrescribedBC163">
			<scale lc="1">1</scale>
			<relative>0</relative>
		</prescribe>
	</Boundary>
	<LoadData>
		<loadcurve id="1" type="linear">
			<point>0,0</point>
			<point>1,0.5</point>
		</loadcurve>
	</LoadData>
	<Output>
		<plotfile type="febio"/>
		<logfile>
			<element_data data="sx" elem_set="unnamed_set01"/>
		</logfile>
	</Output>
</febio_spec>
