<?xml version="1.0" encoding="ISO-8859-1"?>
<febio_spec version="2.5">
	<Module type="explicit-solid"/>
	<Control>
		<dyn_damping>0.1</dyn_damping>
		<time_steps>500</time_steps>
		<step_size>0.0001</step_size>
		<analysis type="static"/>
	</Control>
	<Globals>
		<Constants>
			<T>0</T>
			<R>0</R>
			<Fc>0</Fc>
		</Constants>
	</Globals>
	<Material>
		<material id="1" name="Material1" type="neo-Hookean">
			<density>1</density>
			<E>200</E>
			<v>0.4</v>
		</material>
		<material id="2" name="Material2" type="neo-Hookean">
			<density>100</density>
			<E>100000</E>
			<v>0.3</v>
		</material>
	</Material>
	<Geometry>
		<Nodes name="mi34">
			<node id="1">-3.5355339e-001,-3.5355339e-001,-3.5355339e-001</node>
			<node id="2"> 0.0000000e+000,-3.5355339e-001,-3.5355339e-001</node>
			<node id="3"> 3.5355339e-001,-3.5355339e-001,-3.5355339e-001</node>
			<node id="4">-3.5355339e-001, 0.0000000e+000,-3.5355339e-001</node>
			<node id="5"> 0.0000000e+000, 0.0000000e+000,-3.5355339e-001</node>
			<node id="6"> 3.5355339e-001, 0.0000000e+000,-3.5355339e-001</node>
			<node id="7">-3.5355339e-001, 3.5355339e-001,-3.5355339e-001</node>
			<node id="8"> 0.0000000e+000, 3.5355339e-001,-3.5355339e-001</node>
			<node id="9"> 3.5355339e-001, 3.5355339e-001,-3.5355339e-001</node>
			<node id="10">-3.5355339e-001,-3.5355339e-001, 0.0000000e+000</node>
			<node id="11"> 0.0000000e+000,-3.5355339e-001, 0.0000000e+000</node>
			<node id="12"> 3.5355339e-001,-3.5355339e-001, 0.0000000e+000</node>
			<node id="13">-3.5355339e-001, 0.0000000e+000, 0.0000000e+000</node>
			<node id="14"> 0.0000000e+000, 0.0000000e+000, 0.0000000e+000</node>
			<node id="15"> 3.5355339e-001, 0.0000000e+000, 0.0000000e+000</node>
			<node id="16">-3.5355339e-001, 3.5355339e-001, 0.0000000e+000</node>
			<node id="17"> 0.0000000e+000, 3.5355339e-001, 0.0000000e+000</node>
			<node id="18"> 3.5355339e-001, 3.5355339e-001, 0.0000000e+000</node>
			<node id="19">-3.5355339e-001,-3.5355339e-001, 3.5355339e-001</node>
			<node id="20"> 0.0000000e+000,-3.5355339e-001, 3.5355339e-001</node>
<!-- ... 4175 like lines cut -->
		</Nodes>
		<Elements type="hex8" mat="1" name="Part1">
			<elem id="1">     1,    54,   480,    86,    65,   438,  1410,   467</elem>
			<elem id="2">    54,    55,   481,   480,   438,   439,  1411,  1410</elem>
			<elem id="3">    55,    56,   482,   481,   439,   440,  1412,  1411</elem>
			<elem id="4">    56,     2,    66,   482,   440,    57,   447,  1412</elem>
			<elem id="5">    86,   480,   477,    85,   467,  1410,  1413,   466</elem>
			<elem id="6">   480,   481,   478,   477,  1410,  1411,  1414,  1413</elem>
			<elem id="7">   481,   482,   479,   478,  1411,  1412,  1415,  1414</elem>
			<elem id="8">   482,    66,    67,   479,  1412,   447,   448,  1415</elem>
			<elem id="9">    85,   477,   474,    84,   466,  1413,  1416,   465</elem>
			<elem id="10">   477,   478,   475,   474,  1413,  1414,  1417,  1416</elem>
			<elem id="11">   478,   479,   476,   475,  1414,  1415,  1418,  1417</elem>
			<elem id="12">   479,    67,    68,   476,  1415,   448,   449,  1418</elem>
			<elem id="13">    84,   474,    77,     4,   465,  1416,   458,    78</elem>
			<elem id="14">   474,   475,    76,    77,  1416,  1417,   457,   458</elem>
			<elem id="15">   475,   476,    75,    76,  1417,  1418,   456,   457</elem>
			<elem id="16">   476,    68,     5,    75,  1418,   449,    69,   456</elem>
			<elem id="17">    65,   438,  1410,   467,    64,   441,  1419,   470</elem>
			<elem id="18">   438,   439,  1411,  1410,   441,   442,  1420,  1419</elem>
			<elem id="19">   439,   440,  1412,  1411,   442,   443,  1421,  1420</elem>
			<elem id="20">   440,    57,   447,  1412,   443,    58,   450,  1421</elem>
<!-- ... 2028 like lines cut -->
		</Elements>
		<Elements type="hex8" mat="2" name="Part3">
			<elem id="2049">  2274,  3235,  3266,  2305,  2275,  3236,  3267,  2306</elem>
			<elem id="2050">  2275,  3236,  3267,  2306,  2276,  3237,  3268,  2307</elem>
			<elem id="2051">  2276,  3237,  3268,  2307,  2277,  3238,  3269,  2308</elem>
			<elem id="2052">  2277,  3238,  3269,  2308,  2278,  3239,  3270,  2309</elem>
			<elem id="2053">  2278,  3239,  3270,  2309,  2279,  3240,  3271,  2310</elem>
			<elem id="2054">  2279,  3240,  3271,  2310,  2280,  3241,  3272,  2311</elem>
			<elem id="2055">  2280,  3241,  3272,  2311,  2281,  3242,  3273,  2312</elem>
			<elem id="2056">  2281,  3242,  3273,  2312,  2282,  3243,  3274,  2313</elem>
			<elem id="2057">  2282,  3243,  3274,  2313,  2283,  3244,  3275,  2314</elem>
			<elem id="2058">  2283,  3244,  3275,  2314,  2284,  3245,  3276,  2315</elem>
			<elem id="2059">  2284,  3245,  3276,  2315,  2285,  3246,  3277,  2316</elem>
			<elem id="2060">  2285,  3246,  3277,  2316,  2286,  3247,  3278,  2317</elem>
			<elem id="2061">  2286,  3247,  3278,  2317,  2287,  3248,  3279,  2318</elem>
			<elem id="2062">  2287,  3248,  3279,  2318,  2288,  3249,  3280,  2319</elem>
			<elem id="2063">  2288,  3249,  3280,  2319,  2289,  3250,  3281,  2320</elem>
			<elem id="2064">  2289,  3250,  3281,  2320,  2290,  3251,  3282,  2321</elem>
			<elem id="2065">  2290,  3251,  3282,  2321,  2291,  3252,  3283,  2322</elem>
			<elem id="2066">  2291,  3252,  3283,  2322,  2292,  3253,  3284,  2323</elem>
			<elem id="2067">  2292,  3253,  3284,  2323,  2293,  3254,  3285,  2324</elem>
			<elem id="2068">  2293,  3254,  3285,  2324,  2294,  3255,  3286,  2325</elem>
<!-- ... 880 like lines cut -->
		</Elements>
		<NodeSet name="unnamed_set01">
			<node id="40"/>
		</NodeSet>
		<NodeSet name="FixedDisplacement01">
			<node id="2274"/>
			<node id="2275"/>
			<node id="2276"/>
			<node id="2277"/>
			<node id="2278"/>
			<node id="2279"/>
			<node id="2280"/>
			<node id="2281"/>
			<node id="2282"/>
			<node id="2283"/>
			<node id="2284"/>
			<node id="2285"/>
			<node id="2286"/>
			<node id="2287"/>
			<node id="2288"/>
			<node id="2289"/>
			<node id="2290"/>
			<node id="2291"/>
			<node id="2292"/>
			<node id="2293"/>
<!-- ... 1902 like lines cut -->
		</NodeSet>
		<NodeSet name="InitialVelocity01">
			<node id="1"/>
			<node id="2"/>
			<node id="3"/>
			<node id="4"/>
			<node id="5"/>
			<node id="6"/>
			<node id="7"/>
			<node id="8"/>
			<node id="9"/>
			<node id="10"/>
			<node id="11"/>
			<node id="12"/>
			<node id="13"/>
			<node id="14"/>
			<node id="15"/>
			<node id="16"/>
			<node id="17"/>
			<node id="18"/>
			<node id="19"/>
			<node id="20"/>
<!-- ... 2253 like lines cut -->
		</NodeSet>
		<NodeSet name="unnamed_set01">
			<node id="40"/>
		</NodeSet>
		<Surface name="MasterSurface01">
			<quad4 id="1">  3204,  3173,  3174,  3205</quad4>
			<quad4 id="2">  3205,  3174,  3175,  3206</quad4>
			<quad4 id="3">  3206,  3175,  3176,  3207</quad4>
			<quad4 id="4">  3207,  3176,  3177,  3208</quad4>
			<quad4 id="5">  3208,  3177,  3178,  3209</quad4>
			<quad4 id="6">  3209,  3178,  3179,  3210</quad4>
			<quad4 id="7">  3210,  3179,  3180,  3211</quad4>
			<quad4 id="8">  3211,  3180,  3181,  3212</quad4>
			<quad4 id="9">  3212,  3181,  3182,  3213</quad4>
			<quad4 id="10">  3213,  3182,  3183,  3214</quad4>
			<quad4 id="11">  3214,  3183,  3184,  3215</quad4>
			<quad4 id="12">  3215,  3184,  3185,  3216</quad4>
			<quad4 id="13">  3216,  3185,  3186,  3217</quad4>
			<quad4 id="14">  3217,  3186,  3187,  3218</quad4>
			<quad4 id="15">  3218,  3187,  3188,  3219</quad4>
			<quad4 id="16">  3219,  3188,  3189,  3220</quad4>
			<quad4 id="17">  3220,  3189,  3190,  3221</quad4>
			<quad4 id="18">  3221,  3190,  3191,  3222</quad4>
			<quad4 id="19">  3222,  3191,  3192,  3223</quad4>
			<quad4 id="20">  3223,  3192,  3193,  3224</quad4>
<!-- ... 880 like lines cut -->
		</Surface>
		<Surface name="SlaveSurface01">
			<quad4 id="1">    29,   240,   807,   228</quad4>
			<quad4 id="2">   228,   807,   810,   229</quad4>
			<quad4 id="3">   229,   810,   813,   230</quad4>
			<quad4 id="4">   230,   813,   248,    38</quad4>
			<quad4 id="5">   240,   241,   808,   807</quad4>
			<quad4 id="6">   807,   808,   811,   810</quad4>
			<quad4 id="7">   810,   811,   814,   813</quad4>
			<quad4 id="8">   813,   814,   247,   248</quad4>
			<quad4 id="9">   241,   242,   809,   808</quad4>
			<quad4 id="10">   808,   809,   812,   811</quad4>
			<quad4 id="11">   811,   812,   815,   814</quad4>
			<quad4 id="12">   814,   815,   246,   247</quad4>
			<quad4 id="13">   242,    30,   243,   809</quad4>
			<quad4 id="14">   809,   243,   244,   812</quad4>
			<quad4 id="15">   812,   244,   245,   815</quad4>
			<quad4 id="16">   815,   245,    39,   246</quad4>
			<quad4 id="17">    38,   248,   879,   261</quad4>
			<quad4 id="18">   261,   879,   882,   262</quad4>
			<quad4 id="19">   262,   882,   885,   263</quad4>
			<quad4 id="20">   263,   885,   275,    46</quad4>
<!-- ... 172 like lines cut -->
		</Surface>
		<SurfacePair name="Sliding01">
			<master surface="MasterSurface01"/>
			<slave surface="SlaveSurface01"/>
		</SurfacePair>
	</Geometry>
	<Boundary>
		<fix bc="x,y,z" node_set="FixedDisplacement01"/>
	</Boundary>
	<Contact>
		<contact type="sliding-node-on-facet" name="Sliding01" surface_pair="Sliding01">
			<laugon>0</laugon>
			<tolerance>0.2</tolerance>
			<penalty>100000</penalty>
			<two_pass>0</two_pass>
			<auto_penalty>0</auto_penalty>
			<fric_coeff>0</fric_coeff>
			<fric_penalty>0</fric_penalty>
			<search_tol>0.01</search_tol>
			<minaug>0</minaug>
			<maxaug>10</maxaug>
			<gaptol>0</gaptol>
			<seg_up>0</seg_up>
		</contact>
	</Contact>
	<Initial>
		<init bc="vx" node_set="InitialVelocity01">
			<value>50</value>
		</init>
	</Initial>
	<Output>
		<plotfile type="febio">
			<plot_stride>5</plot_stride>
			<var type="acceleration"/>
			<var type="contact gap"/>
			<var type="contact pressure"/>
			<var type="contact traction"/>
			<var type="displacement"/>
			<var type="stress"/>
			<var type="velocity"/>
		</plotfile>
		<logfile>
			<node_data data="x" node_set="unnamed_set01"/>
		</logfile>
	</Output>
</febio_spec>
