<?xml version="1.0" encoding="ISO-8859-1"?>
<febio_spec version="2.5">
	<Module type="multiphasic"/>
	<Control>
		<time_steps>10000</time_steps>
		<step_size>1</step_size>
		<max_refs>15</max_refs>
		<max_ups>0</max_ups>
		<diverge_reform>1</diverge_reform>
		<reform_each_time_step>1</reform_each_time_step>
		<dtol>0.001</dtol>
		<etol>0.01</etol>
		<rtol>0</rtol>
		<ptol>0.01</ptol>
		<ctol>0.01</ctol>
		<lstol>0.9</lstol>
		<min_residual>1e-020</min_residual>
		<qnmethod>0</qnmethod>
		<time_stepper>
			<dtmin>0.01</dtmin>
			<dtmax lc="1"></dtmax>
			<max_retries>5</max_retries>
			<opt_iter>10</opt_iter>
		</time_stepper>
		<symmetric_biphasic>0</symmetric_biphasic>
	</Control>
	<Globals>
		<Constants>
			<T>293</T>
			<R>8.314e-006</R>
			<Fc>9.65e-005</Fc>
		</Constants>
		<Solutes>
			<solute id="1" name="neutral">
				<charge_number>0</charge_number>
				<molar_mass>1</molar_mass>
				<density>1</density>
			</solute>
			<solute id="2" name="Na+">
				<charge_number>1</charge_number>
				<molar_mass>1</molar_mass>
				<density>1</density>
			</solute>
			<solute id="3" name="Cl-">
				<charge_number>-1</charge_number>
				<molar_mass>1</molar_mass>
				<density>1</density>
			</solute>
		</Solutes>
	</Globals>
	<Material>
		<material id="1" name="Triphasic" type="multiphasic">
			<phi0>0.2</phi0>
			<fixed_charge_density>-200</fixed_charge_density>
			<solid type="neo-Hookean">
				<density>1</density>
				<E>1</E>
				<v>0</v>
			</solid>
			<permeability type="perm-const-iso">
				<perm>0.001</perm>
			</permeability>
			<osmotic_coefficient type="osm-coef-const">
				<osmcoef>1</osmcoef>
			</osmotic_coefficient>
			<solute sol="2">
				<diffusivity type="diff-const-iso">
					<free_diff>0.001</free_diff>
					<diff>0.0005</diff>
				</diffusivity>
				<solubility type="solub-const">
					<solub>1</solub>
				</solubility>
			</solute>
			<solute sol="3">
				<diffusivity type="diff-const-iso">
					<free_diff>0.0016</free_diff>
					<diff>0.0008</diff>
				</diffusivity>
				<solubility type="solub-const">
					<solub>1</solub>
				</solubility>
			</solute>
		</material>
		<material id="2" name="Biphasic-Solute" type="multiphasic">
			<phi0>0.2</phi0>
			<fixed_charge_density>0</fixed_charge_density>
			<solid type="neo-Hookean">
				<density>1</density>
				<E>1</E>
				<v>0</v>
			</solid>
			<permeability type="perm-const-iso">
				<perm>0.001</perm>
			</permeability>
			<osmotic_coefficient type="osm-coef-const">
				<osmcoef>1</osmcoef>
			</osmotic_coefficient>
			<solute sol="1">
				<diffusivity type="diff-const-iso">
					<free_diff>0.001</free_diff>
					<diff>0.0005</diff>
				</diffusivity>
				<solubility type="solub-const">
					<solub>1</solub>
				</solubility>
			</solute>
		</material>
	</Material>
	<Geometry>
		<Nodes name="mp03">
			<node id="1">-5.0000000e-001,-5.0000000e-001, 0.0000000e+000</node>
			<node id="2">-5.0000000e-001,-5.0000000e-001, 1.1731720e-002</node>
			<node id="3">-5.0000000e-001,-5.0000000e-001, 2.6982956e-002</node>
			<node id="4">-5.0000000e-001,-5.0000000e-001, 4.6809562e-002</node>
			<node id="5">-5.0000000e-001,-5.0000000e-001, 7.2584150e-002</node>
			<node id="6">-5.0000000e-001,-5.0000000e-001, 1.0609112e-001</node>
			<node id="7">-5.0000000e-001,-5.0000000e-001, 1.4965017e-001</node>
			<node id="8">-5.0000000e-001,-5.0000000e-001, 2.0627694e-001</node>
			<node id="9">-5.0000000e-001,-5.0000000e-001, 2.7989174e-001</node>
			<node id="10">-5.0000000e-001,-5.0000000e-001, 3.7559098e-001</node>
			<node id="11">-5.0000000e-001,-5.0000000e-001, 5.0000000e-001</node>
			<node id="12">-5.0000000e-001,-5.0000000e-001, 6.2440902e-001</node>
			<node id="13">-5.0000000e-001,-5.0000000e-001, 7.2010826e-001</node>
			<node id="14">-5.0000000e-001,-5.0000000e-001, 7.9372306e-001</node>
			<node id="15">-5.0000000e-001,-5.0000000e-001, 8.5034983e-001</node>
			<node id="16">-5.0000000e-001,-5.0000000e-001, 8.9390888e-001</node>
			<node id="17">-5.0000000e-001,-5.0000000e-001, 9.2741585e-001</node>
			<node id="18">-5.0000000e-001,-5.0000000e-001, 9.5319044e-001</node>
			<node id="19">-5.0000000e-001,-5.0000000e-001, 9.7301704e-001</node>
			<node id="20">-5.0000000e-001,-5.0000000e-001, 9.8826828e-001</node>
<!-- ... 144 like lines cut -->
		</Nodes>
		<Elements type="hex8" mat="1" name="Part1">
			<elem id="1">     1,    43,    64,    22,     2,    44,    65,    23</elem>
			<elem id="2">     2,    44,    65,    23,     3,    45,    66,    24</elem>
			<elem id="3">     3,    45,    66,    24,     4,    46,    67,    25</elem>
			<elem id="4">     4,    46,    67,    25,     5,    47,    68,    26</elem>
			<elem id="5">     5,    47,    68,    26,     6,    48,    69,    27</elem>
			<elem id="6">     6,    48,    69,    27,     7,    49,    70,    28</elem>
			<elem id="7">     7,    49,    70,    28,     8,    50,    71,    29</elem>
			<elem id="8">     8,    50,    71,    29,     9,    51,    72,    30</elem>
			<elem id="9">     9,    51,    72,    30,    10,    52,    73,    31</elem>
			<elem id="10">    10,    52,    73,    31,    11,    53,    74,    32</elem>
			<elem id="11">    11,    53,    74,    32,    12,    54,    75,    33</elem>
			<elem id="12">    12,    54,    75,    33,    13,    55,    76,    34</elem>
			<elem id="13">    13,    55,    76,    34,    14,    56,    77,    35</elem>
			<elem id="14">    14,    56,    77,    35,    15,    57,    78,    36</elem>
			<elem id="15">    15,    57,    78,    36,    16,    58,    79,    37</elem>
			<elem id="16">    16,    58,    79,    37,    17,    59,    80,    38</elem>
			<elem id="17">    17,    59,    80,    38,    18,    60,    81,    39</elem>
			<elem id="18">    18,    60,    81,    39,    19,    61,    82,    40</elem>
			<elem id="19">    19,    61,    82,    40,    20,    62,    83,    41</elem>
			<elem id="20">    20,    62,    83,    41,    21,    63,    84,    42</elem>
		</Elements>
		<Elements type="hex8" mat="2" name="Part2">
			<elem id="21">    21,    63,    84,    42,    85,   125,   145,   105</elem>
			<elem id="22">    85,   125,   145,   105,    86,   126,   146,   106</elem>
			<elem id="23">    86,   126,   146,   106,    87,   127,   147,   107</elem>
			<elem id="24">    87,   127,   147,   107,    88,   128,   148,   108</elem>
			<elem id="25">    88,   128,   148,   108,    89,   129,   149,   109</elem>
			<elem id="26">    89,   129,   149,   109,    90,   130,   150,   110</elem>
			<elem id="27">    90,   130,   150,   110,    91,   131,   151,   111</elem>
			<elem id="28">    91,   131,   151,   111,    92,   132,   152,   112</elem>
			<elem id="29">    92,   132,   152,   112,    93,   133,   153,   113</elem>
			<elem id="30">    93,   133,   153,   113,    94,   134,   154,   114</elem>
			<elem id="31">    94,   134,   154,   114,    95,   135,   155,   115</elem>
			<elem id="32">    95,   135,   155,   115,    96,   136,   156,   116</elem>
			<elem id="33">    96,   136,   156,   116,    97,   137,   157,   117</elem>
			<elem id="34">    97,   137,   157,   117,    98,   138,   158,   118</elem>
			<elem id="35">    98,   138,   158,   118,    99,   139,   159,   119</elem>
			<elem id="36">    99,   139,   159,   119,   100,   140,   160,   120</elem>
			<elem id="37">   100,   140,   160,   120,   101,   141,   161,   121</elem>
			<elem id="38">   101,   141,   161,   121,   102,   142,   162,   122</elem>
			<elem id="39">   102,   142,   162,   122,   103,   143,   163,   123</elem>
			<elem id="40">   103,   143,   163,   123,   104,   144,   164,   124</elem>
		</Elements>
		<NodeSet name="FixedDisplacement01">
			<node id="1"/>
			<node id="2"/>
			<node id="3"/>
			<node id="4"/>
			<node id="5"/>
			<node id="6"/>
			<node id="7"/>
			<node id="8"/>
			<node id="9"/>
			<node id="10"/>
			<node id="11"/>
			<node id="12"/>
			<node id="13"/>
			<node id="14"/>
			<node id="15"/>
			<node id="16"/>
			<node id="17"/>
			<node id="18"/>
			<node id="19"/>
			<node id="20"/>
<!-- ... 144 like lines cut -->
		</NodeSet>
		<NodeSet name="FixedDisplacement02">
			<node id="1"/>
			<node id="2"/>
			<node id="3"/>
			<node id="4"/>
			<node id="5"/>
			<node id="6"/>
			<node id="7"/>
			<node id="8"/>
			<node id="9"/>
			<node id="10"/>
			<node id="11"/>
			<node id="12"/>
			<node id="13"/>
			<node id="14"/>
			<node id="15"/>
			<node id="16"/>
			<node id="17"/>
			<node id="18"/>
			<node id="19"/>
			<node id="20"/>
<!-- ... 144 like lines cut -->
		</NodeSet>
		<NodeSet name="FixedDisplacement03">
			<node id="1"/>
			<node id="22"/>
			<node id="43"/>
			<node id="64"/>
		</NodeSet>
		<NodeSet name="PrescribedBC15">
			<node id="104"/>
			<node id="124"/>
			<node id="144"/>
			<node id="164"/>
		</NodeSet>
		<NodeSet name="PrescribedBC16">
			<node id="104"/>
			<node id="124"/>
			<node id="144"/>
			<node id="164"/>
		</NodeSet>
		<NodeSet name="PrescribedBC17">
			<node id="1"/>
			<node id="22"/>
			<node id="43"/>
			<node id="64"/>
		</NodeSet>
		<NodeSet name="InitialConcentration01">
			<node id="21"/>
			<node id="42"/>
			<node id="63"/>
			<node id="84"/>
			<node id="85"/>
			<node id="86"/>
			<node id="87"/>
			<node id="88"/>
			<node id="89"/>
			<node id="90"/>
			<node id="91"/>
			<node id="92"/>
			<node id="93"/>
			<node id="94"/>
			<node id="95"/>
			<node id="96"/>
			<node id="97"/>
			<node id="98"/>
			<node id="99"/>
			<node id="100"/>
<!-- ... 64 like lines cut -->
		</NodeSet>
		<NodeSet name="InitialConcentration02">
			<node id="1"/>
			<node id="2"/>
			<node id="3"/>
			<node id="4"/>
			<node id="5"/>
			<node id="6"/>
			<node id="7"/>
			<node id="8"/>
			<node id="9"/>
			<node id="10"/>
			<node id="11"/>
			<node id="12"/>
			<node id="13"/>
			<node id="14"/>
			<node id="15"/>
			<node id="16"/>
			<node id="17"/>
			<node id="18"/>
			<node id="19"/>
			<node id="20"/>
<!-- ... 64 like lines cut -->
		</NodeSet>
		<NodeSet name="InitialConcentration03">
			<node id="1"/>
			<node id="2"/>
			<node id="3"/>
			<node id="4"/>
			<node id="5"/>
			<node id="6"/>
			<node id="7"/>
			<node id="8"/>
			<node id="9"/>
			<node id="10"/>
			<node id="11"/>
			<node id="12"/>
			<node id="13"/>
			<node id="14"/>
			<node id="15"/>
			<node id="16"/>
			<node id="17"/>
			<node id="18"/>
			<node id="19"/>
			<node id="20"/>
<!-- ... 64 like lines cut -->
		</NodeSet>
		<NodeSet name="InitialFluidPressure01">
			<node id="21"/>
			<node id="42"/>
			<node id="63"/>
			<node id="84"/>
			<node id="85"/>
			<node id="86"/>
			<node id="87"/>
			<node id="88"/>
			<node id="89"/>
			<node id="90"/>
			<node id="91"/>
			<node id="92"/>
			<node id="93"/>
			<node id="94"/>
			<node id="95"/>
			<node id="96"/>
			<node id="97"/>
			<node id="98"/>
			<node id="99"/>
			<node id="100"/>
<!-- ... 64 like lines cut -->
		</NodeSet>
		<NodeSet name="InitialFluidPressure02">
			<node id="1"/>
			<node id="2"/>
			<node id="3"/>
			<node id="4"/>
			<node id="5"/>
			<node id="6"/>
			<node id="7"/>
			<node id="8"/>
			<node id="9"/>
			<node id="10"/>
			<node id="11"/>
			<node id="12"/>
			<node id="13"/>
			<node id="14"/>
			<node id="15"/>
			<node id="16"/>
			<node id="17"/>
			<node id="18"/>
			<node id="19"/>
			<node id="20"/>
<!-- ... 64 like lines cut -->
		</NodeSet>
		<ElementSet name="unnamed_set01">
			<elem id="31"/>
		</ElementSet>
	</Geometry>
	<Boundary>
		<fix bc="x" node_set="FixedDisplacement01"/>
		<fix bc="y" node_set="FixedDisplacement02"/>
		<fix bc="z" node_set="FixedDisplacement03"/>
		<prescribe bc="c1" node_set="PrescribedBC15">
			<scale lc="2">1</scale>
			<relative>0</relative>
		</prescribe>
		<prescribe bc="p" node_set="PrescribedBC16">
			<scale lc="3">1</scale>
			<relative>0</relative>
		</prescribe>
		<prescribe bc="c3" node_set="PrescribedBC17">
			<scale lc="4">1</scale>
			<relative>0</relative>
		</prescribe>
	</Boundary>
	<Initial>
		<init bc="c1" node_set="InitialConcentration01">
			<value>300</value>
		</init>
		<init bc="c2" node_set="InitialConcentration02">
			<value>150</value>
		</init>
		<init bc="c3" node_set="InitialConcentration03">
			<value>150</value>
		</init>
		<init bc="p" node_set="InitialFluidPressure01">
			<value>-0.730801</value>
		</init>
		<init bc="p" node_set="InitialFluidPressure02">
			<value>-0.730801</value>
		</init>
	</Initial>
	<LoadData>
		<loadcurve id="1" type="step">
			<point>0,0</point>
			<point>1,0.1</point>
			<point>10,1</point>
			<point>100,10</point>
			<point>1000,100</point>
			<point>10000,1000</point>
		</loadcurve>
		<loadcurve id="2" type="linear">
			<point>0,300</point>
			<point>1,600</point>
		</loadcurve>
		<loadcurve id="3" type="linear">
			<point>0,-0.7308006</point>
			<point>1,-1.4616012</point>
		</loadcurve>
		<loadcurve id="4" type="step">
			<point>0,0</point>
			<point>1,150</point>
		</loadcurve>
	</LoadData>
	<Output>
		<plotfile type="febio">
			<var type="current density"/>
			<var type="displacement"/>
			<var type="reaction forces"/>
			<var type="relative volume"/>
			<var type="stress"/>
			<var type="effective fluid pressure"/>
			<var type="fluid pressure"/>
			<var type="fluid flux"/>
			<var type="effective solute concentration"/>
			<var type="electric potential"/>
			<var type="fixed charge density"/>
			<var type="solute concentration"/>
			<var type="solute flux"/>
		</plotfile>
		<logfile>
			<element_data data="wz" elem_set="unnamed_set01"/>
		</logfile>
	</Output>
</febio_spec>
