<?xml version="1.0" encoding="ISO-8859-1"?>
<!-- 
Problem Description:
Unconfined compression creep response of charged multiphasic material containing CaCl2. 
The solid matrix consists of a neo-Hookean ground matrix + ellipsoidal fiber distribution.
A two-step analysis is performed: (1) The first step (from 0 to 1 s) is a steady-state analysis
needed to produce equilibrium free swelling by raising the fixed charged density from zero 
to the final desired value. During this step the loading platen is maintained stationary so
that the swelling produces a small tare load. (2) The second step (from 1 to 7201 s) is a 
transient analysis where a constant compressive load (0.471) is prescribed to the loading platen
while the material undergoes creep deformation. 

Main Features:
	Multiphasic material
Secondary Features:
	Multistep analysis
	Axisymmetric analysis (wedge geometry, rigid plane of symmetry, tension-compression contact)
	Contact with rigid platen
Materials:
	Multiphasic
	EFD neo-Hookean
	Holmes-Mow Permeability
	Constant Osmotic Coefficient
	Constant Isotropic Diffusivity
	Constant Solubility
Degrees of Freedom: 608
Results:
	Steps Completed: 62
	Equilibrium Iterations: 209
	Right Hand Evaluations: 278
	Siffness Reformations: 209
	Other:
		The tare load is 0.021 at time t=1.
		The loading platen displacement is -0.934 at t=7201.
 
Comments:
	
-->
<febio_spec version="2.5">
	<Module type="multiphasic"/>
	<Globals>
		<Constants>
			<T>310</T>
			<R>8.314e-006</R>
			<Fc>9.65e-005</Fc>
		</Constants>
		<Solutes>
			<solute id="1" name="Cl-">
				<charge_number>-1</charge_number>
				<molar_mass>1</molar_mass>
				<density>1</density>
			</solute>
			<solute id="2" name="Ca2+">
				<charge_number>2</charge_number>
				<molar_mass>1</molar_mass>
				<density>1</density>
			</solute>
		</Solutes>
	</Globals>
	<Material>
		<material id="1" name="Symmetry Plane" type="rigid body">
			<density>1</density>
			<center_of_mass>0,0,0</center_of_mass>
		</material>
		<material id="2" name="Platen" type="rigid body">
			<density>1</density>
			<center_of_mass>0,0,1.5</center_of_mass>
		</material>
		<material id="3" name="Cartilage CaCl2" type="multiphasic">
			<phi0>0.2</phi0>
			<fixed_charge_density lc="2">1</fixed_charge_density>
			<solid type="EFD neo-Hookean">
				<E>0.1</E>
				<v>0</v>
				<beta>2.5,2.5,2.5</beta>
				<ksi>2,2,2</ksi>
			</solid>
			<permeability type="perm-const-iso">
				<perm>0.1</perm>
			</permeability>
			<osmotic_coefficient type="osm-coef-const">
				<osmcoef>1</osmcoef>
			</osmotic_coefficient>
			<solute sol="1">
				<diffusivity type="diff-const-iso">
					<free_diff>0.001</free_diff>
					<diff>0.0005</diff>
				</diffusivity>
				<solubility type="solub-const">
					<solub>1</solub>
				</solubility>
			</solute>
			<solute sol="2">
				<diffusivity type="diff-const-iso">
					<free_diff>0.0016</free_diff>
					<diff>0.0008</diff>
				</diffusivity>
				<solubility type="solub-const">
					<solub>1</solub>
				</solubility>
			</solute>
		</material>
	</Material>
	<Geometry>
		<Nodes name="mp07">
			<node id="1"> 0.0000000e+000, 0.0000000e+000, 0.0000000e+000</node>
			<node id="2"> 4.5346025e-001, 0.0000000e+000, 0.0000000e+000</node>
			<node id="3"> 4.4958083e-001, 5.9188438e-002, 0.0000000e+000</node>
			<node id="4"> 8.3890146e-001, 0.0000000e+000, 0.0000000e+000</node>
			<node id="5"> 8.3172454e-001, 1.0949861e-001, 0.0000000e+000</node>
			<node id="6"> 1.1665265e+000, 0.0000000e+000, 0.0000000e+000</node>
			<node id="7"> 1.1565467e+000, 1.5226226e-001, 0.0000000e+000</node>
			<node id="8"> 1.4450078e+000, 0.0000000e+000, 0.0000000e+000</node>
			<node id="9"> 1.4326455e+000, 1.8861136e-001, 0.0000000e+000</node>
			<node id="10"> 1.6817168e+000, 0.0000000e+000, 0.0000000e+000</node>
			<node id="11"> 1.6673295e+000, 2.1950809e-001, 0.0000000e+000</node>
			<node id="12"> 1.8829196e+000, 0.0000000e+000, 0.0000000e+000</node>
			<node id="13"> 1.8668109e+000, 2.4577032e-001, 0.0000000e+000</node>
			<node id="14"> 2.0539419e+000, 0.0000000e+000, 0.0000000e+000</node>
			<node id="15"> 2.0363701e+000, 2.6809321e-001, 0.0000000e+000</node>
			<node id="16"> 2.1993108e+000, 0.0000000e+000, 0.0000000e+000</node>
			<node id="17"> 2.1804954e+000, 2.8706766e-001, 0.0000000e+000</node>
			<node id="18"> 2.3228745e+000, 0.0000000e+000, 0.0000000e+000</node>
			<node id="19"> 2.3030019e+000, 3.0319595e-001, 0.0000000e+000</node>
			<node id="20"> 2.4279035e+000, 0.0000000e+000, 0.0000000e+000</node>
<!-- ... 110 like lines cut -->
		</Nodes>
		<Elements type="penta6" mat="3" name="Part01">
			<elem id="1">     1,     2,     3,    62,    63,    64</elem>
		</Elements>
		<Elements type="hex8" mat="3" name="Part01">
			<elem id="2">     2,     4,     5,     3,    63,    65,    66,    64</elem>
			<elem id="3">     4,     6,     7,     5,    65,    67,    68,    66</elem>
			<elem id="4">     6,     8,     9,     7,    67,    69,    70,    68</elem>
			<elem id="5">     8,    10,    11,     9,    69,    71,    72,    70</elem>
			<elem id="6">    10,    12,    13,    11,    71,    73,    74,    72</elem>
			<elem id="7">    12,    14,    15,    13,    73,    75,    76,    74</elem>
			<elem id="8">    14,    16,    17,    15,    75,    77,    78,    76</elem>
			<elem id="9">    16,    18,    19,    17,    77,    79,    80,    78</elem>
			<elem id="10">    18,    20,    21,    19,    79,    81,    82,    80</elem>
			<elem id="11">    20,    22,    23,    21,    81,    83,    84,    82</elem>
			<elem id="12">    22,    24,    25,    23,    83,    85,    86,    84</elem>
			<elem id="13">    24,    26,    27,    25,    85,    87,    88,    86</elem>
			<elem id="14">    26,    28,    29,    27,    87,    89,    90,    88</elem>
			<elem id="15">    28,    30,    31,    29,    89,    91,    92,    90</elem>
			<elem id="16">    30,    32,    33,    31,    91,    93,    94,    92</elem>
			<elem id="17">    32,    34,    35,    33,    93,    95,    96,    94</elem>
			<elem id="18">    34,    36,    37,    35,    95,    97,    98,    96</elem>
			<elem id="19">    36,    38,    39,    37,    97,    99,   100,    98</elem>
			<elem id="20">    38,    40,    41,    39,    99,   101,   102,   100</elem>
			<elem id="21">    40,    42,    43,    41,   101,   103,   104,   102</elem>
<!-- ... 9 like lines cut -->
		</Elements>
		<Elements type="quad4" mat="1" name="Part3">
			<elem id="31">   123,   125,   126,   124</elem>
		</Elements>
		<Elements type="quad4" mat="2" name="Part4">
			<elem id="32">   127,   129,   130,   128</elem>
		</Elements>
		<NodeSet name="FixedDisplacement01">
			<node id="1"/>
			<node id="62"/>
		</NodeSet>
		<NodeSet name="FixedDisplacement02">
			<node id="1"/>
			<node id="2"/>
			<node id="4"/>
			<node id="6"/>
			<node id="8"/>
			<node id="10"/>
			<node id="12"/>
			<node id="14"/>
			<node id="16"/>
			<node id="18"/>
			<node id="20"/>
			<node id="22"/>
			<node id="24"/>
			<node id="26"/>
			<node id="28"/>
			<node id="30"/>
			<node id="32"/>
			<node id="34"/>
			<node id="36"/>
			<node id="38"/>
<!-- ... 42 like lines cut -->
		</NodeSet>
		<NodeSet name="FixedDisplacement03">
			<node id="1"/>
			<node id="2"/>
			<node id="3"/>
			<node id="4"/>
			<node id="5"/>
			<node id="6"/>
			<node id="7"/>
			<node id="8"/>
			<node id="9"/>
			<node id="10"/>
			<node id="11"/>
			<node id="12"/>
			<node id="13"/>
			<node id="14"/>
			<node id="15"/>
			<node id="16"/>
			<node id="17"/>
			<node id="18"/>
			<node id="19"/>
			<node id="20"/>
<!-- ... 41 like lines cut -->
		</NodeSet>
		<NodeSet name="PrescribedBC179">
			<node id="60"/>
			<node id="61"/>
			<node id="121"/>
			<node id="122"/>
		</NodeSet>
		<NodeSet name="PrescribedBC180">
			<node id="60"/>
			<node id="61"/>
			<node id="121"/>
			<node id="122"/>
		</NodeSet>
		<NodeSet name="PrescribedBC181">
			<node id="60"/>
			<node id="61"/>
			<node id="121"/>
			<node id="122"/>
		</NodeSet>
		<NodeSet name="InitialConcentration01">
			<node id="1"/>
			<node id="2"/>
			<node id="3"/>
			<node id="4"/>
			<node id="5"/>
			<node id="6"/>
			<node id="7"/>
			<node id="8"/>
			<node id="9"/>
			<node id="10"/>
			<node id="11"/>
			<node id="12"/>
			<node id="13"/>
			<node id="14"/>
			<node id="15"/>
			<node id="16"/>
			<node id="17"/>
			<node id="18"/>
			<node id="19"/>
			<node id="20"/>
<!-- ... 102 like lines cut -->
		</NodeSet>
		<NodeSet name="InitialConcentration01">
			<node id="1"/>
			<node id="2"/>
			<node id="3"/>
			<node id="4"/>
			<node id="5"/>
			<node id="6"/>
			<node id="7"/>
			<node id="8"/>
			<node id="9"/>
			<node id="10"/>
			<node id="11"/>
			<node id="12"/>
			<node id="13"/>
			<node id="14"/>
			<node id="15"/>
			<node id="16"/>
			<node id="17"/>
			<node id="18"/>
			<node id="19"/>
			<node id="20"/>
<!-- ... 102 like lines cut -->
		</NodeSet>
		<NodeSet name="InitialFluidPressure01">
			<node id="1"/>
			<node id="2"/>
			<node id="3"/>
			<node id="4"/>
			<node id="5"/>
			<node id="6"/>
			<node id="7"/>
			<node id="8"/>
			<node id="9"/>
			<node id="10"/>
			<node id="11"/>
			<node id="12"/>
			<node id="13"/>
			<node id="14"/>
			<node id="15"/>
			<node id="16"/>
			<node id="17"/>
			<node id="18"/>
			<node id="19"/>
			<node id="20"/>
<!-- ... 102 like lines cut -->
		</NodeSet>
		<Surface name="MasterSurface01">
			<quad4 id="1">   123,   125,   126,   124</quad4>
		</Surface>
		<Surface name="SlaveSurface01">
			<quad4 id="1">     1,    62,    64,     3</quad4>
			<quad4 id="2">     5,     3,    64,    66</quad4>
			<quad4 id="3">     7,     5,    66,    68</quad4>
			<quad4 id="4">     9,     7,    68,    70</quad4>
			<quad4 id="5">    11,     9,    70,    72</quad4>
			<quad4 id="6">    13,    11,    72,    74</quad4>
			<quad4 id="7">    15,    13,    74,    76</quad4>
			<quad4 id="8">    17,    15,    76,    78</quad4>
			<quad4 id="9">    19,    17,    78,    80</quad4>
			<quad4 id="10">    21,    19,    80,    82</quad4>
			<quad4 id="11">    23,    21,    82,    84</quad4>
			<quad4 id="12">    25,    23,    84,    86</quad4>
			<quad4 id="13">    27,    25,    86,    88</quad4>
			<quad4 id="14">    29,    27,    88,    90</quad4>
			<quad4 id="15">    31,    29,    90,    92</quad4>
			<quad4 id="16">    33,    31,    92,    94</quad4>
			<quad4 id="17">    35,    33,    94,    96</quad4>
			<quad4 id="18">    37,    35,    96,    98</quad4>
			<quad4 id="19">    39,    37,    98,   100</quad4>
			<quad4 id="20">    41,    39,   100,   102</quad4>
<!-- ... 10 like lines cut -->
		</Surface>
		<Surface name="MasterSurface02">
			<quad4 id="1">   127,   129,   130,   128</quad4>
		</Surface>
		<Surface name="SlaveSurface02">
			<tri3 id="1">    62,    63,    64</tri3>
			<quad4 id="2">    63,    65,    66,    64</quad4>
			<quad4 id="3">    65,    67,    68,    66</quad4>
			<quad4 id="4">    67,    69,    70,    68</quad4>
			<quad4 id="5">    69,    71,    72,    70</quad4>
			<quad4 id="6">    71,    73,    74,    72</quad4>
			<quad4 id="7">    73,    75,    76,    74</quad4>
			<quad4 id="8">    75,    77,    78,    76</quad4>
			<quad4 id="9">    77,    79,    80,    78</quad4>
			<quad4 id="10">    79,    81,    82,    80</quad4>
			<quad4 id="11">    81,    83,    84,    82</quad4>
			<quad4 id="12">    83,    85,    86,    84</quad4>
			<quad4 id="13">    85,    87,    88,    86</quad4>
			<quad4 id="14">    87,    89,    90,    88</quad4>
			<quad4 id="15">    89,    91,    92,    90</quad4>
			<quad4 id="16">    91,    93,    94,    92</quad4>
			<quad4 id="17">    93,    95,    96,    94</quad4>
			<quad4 id="18">    95,    97,    98,    96</quad4>
			<quad4 id="19">    97,    99,   100,    98</quad4>
			<quad4 id="20">    99,   101,   102,   100</quad4>
			<quad4 id="21">   101,   103,   104,   102</quad4>
<!-- ... 9 like lines cut -->
		</Surface>
		<ElementSet name="unnamed_set01">
			<elem id="2"/>
		</ElementSet>
		<SurfacePair name="TCInterface01">
			<master surface="MasterSurface01"/>
			<slave surface="SlaveSurface01"/>
		</SurfacePair>
		<SurfacePair name="TCInterface02">
			<master surface="MasterSurface02"/>
			<slave surface="SlaveSurface02"/>
		</SurfacePair>
	</Geometry>
	<MeshData>
		<ElementData var="shell thickness" elem_set="Part3">
			<elem lid="1">0.01,0.01,0.01,0.01</elem>
		</ElementData>
		<ElementData var="shell thickness" elem_set="Part4">
			<elem lid="1">0.01,0.01,0.01,0.01</elem>
		</ElementData>
	</MeshData>
	<Boundary>
		<fix bc="x,y" node_set="FixedDisplacement01"/>
		<fix bc="y" node_set="FixedDisplacement02"/>
		<fix bc="z" node_set="FixedDisplacement03"/>
		<prescribe bc="p" node_set="PrescribedBC179">
			<scale lc="3">1</scale>
			<relative>0</relative>
		</prescribe>
		<prescribe bc="c1" node_set="PrescribedBC180">
			<scale lc="4">1</scale>
			<relative>0</relative>
		</prescribe>
		<prescribe bc="c2" node_set="PrescribedBC181">
			<scale lc="5">1</scale>
			<relative>0</relative>
		</prescribe>
		<rigid_body mat="1">
			<fixed bc="x"/>
			<fixed bc="y"/>
			<fixed bc="z"/>
			<fixed bc="Rx"/>
			<fixed bc="Ry"/>
			<fixed bc="Rz"/>
		</rigid_body>
		<rigid_body mat="2">
			<fixed bc="x"/>
			<fixed bc="y"/>
			<fixed bc="Rx"/>
			<fixed bc="Ry"/>
			<fixed bc="Rz"/>
		</rigid_body>
	</Boundary>
	<Contact>
		<contact type="sliding-elastic" name="TCInterface01" surface_pair="TCInterface01">
			<laugon>0</laugon>
			<tolerance>0.2</tolerance>
			<gaptol>0</gaptol>
			<penalty>10000</penalty>
			<auto_penalty>1</auto_penalty>
			<two_pass>0</two_pass>
			<search_tol>0.01</search_tol>
			<symmetric_stiffness>0</symmetric_stiffness>
			<search_radius>1</search_radius>
			<seg_up>0</seg_up>
			<tension>1</tension>
			<minaug>0</minaug>
			<maxaug>10</maxaug>
			<fric_coeff>0</fric_coeff>
			<smooth_aug>0</smooth_aug>
			<node_reloc>0</node_reloc>
		</contact>
		<contact type="sliding-elastic" name="TCInterface02" surface_pair="TCInterface02">
			<laugon>0</laugon>
			<tolerance>0.2</tolerance>
			<gaptol>0</gaptol>
			<penalty>1000</penalty>
			<auto_penalty>1</auto_penalty>
			<two_pass>0</two_pass>
			<search_tol>0.01</search_tol>
			<symmetric_stiffness>0</symmetric_stiffness>
			<search_radius>1</search_radius>
			<seg_up>0</seg_up>
			<tension>0</tension>
			<minaug>0</minaug>
			<maxaug>10</maxaug>
			<fric_coeff>0</fric_coeff>
			<smooth_aug>0</smooth_aug>
			<node_reloc>0</node_reloc>
		</contact>
	</Contact>
	<Initial>
		<init bc="c1" node_set="InitialConcentration01">
			<value>220</value>
		</init>
		<init bc="c2" node_set="InitialConcentration01">
			<value>110</value>
		</init>
		<init bc="p" node_set="InitialFluidPressure01">
			<value>-0.8505</value>
		</init>
	</Initial>
	<LoadData>
		<loadcurve id="1" type="step">
			<point>0,0</point>
			<point>1.1,0.1</point>
			<point>1.5,0.1</point>
			<point>2,0.1</point>
			<point>10,1</point>
			<point>100,10</point>
			<point>1000,100</point>
			<point>10000,1000</point>
		</loadcurve>
		<loadcurve id="2" type="smooth">
			<point>0,0</point>
			<point>1,-200</point>
		</loadcurve>
		<loadcurve id="3" type="step">
			<point>0,0</point>
			<point>1,-0.8505</point>
		</loadcurve>
		<loadcurve id="4" type="step">
			<point>0,0</point>
			<point>1,220</point>
		</loadcurve>
		<loadcurve id="5" type="step">
			<point>0,0</point>
			<point>1,110</point>
		</loadcurve>
		<loadcurve id="6" type="linear">
			<point>0,0</point>
			<point>1,0</point>
		</loadcurve>
		<loadcurve id="7" type="step">
			<point>0,0</point>
			<point>1,-0.471</point>
		</loadcurve>
	</LoadData>
	<Output>
		<plotfile type="febio">
			<var type="contact gap"/>
			<var type="contact pressure"/>
			<var type="current density"/>
			<var type="displacement"/>
			<var type="reaction forces"/>
			<var type="relative volume"/>
			<var type="stress"/>
			<var type="effective fluid pressure"/>
			<var type="fluid pressure"/>
			<var type="fluid flux"/>
			<var type="effective solute concentration"/>
			<var type="electric potential"/>
			<var type="fixed charge density"/>
			<var type="solute concentration"/>
			<var type="solute flux"/>
		</plotfile>
		<logfile>
			<element_data data="sx" elem_set="unnamed_set01"/>
		</logfile>
	</Output>
	<Step name="Step01 Steady-State">
		<Control>
			<time_steps>10</time_steps>
			<step_size>0.1</step_size>
			<max_refs>15</max_refs>
			<max_ups>0</max_ups>
			<diverge_reform>1</diverge_reform>
			<reform_each_time_step>1</reform_each_time_step>
			<dtol>0.001</dtol>
			<etol>0.01</etol>
			<rtol>0</rtol>
			<ptol>0.01</ptol>
			<ctol>0.01</ctol>
			<lstol>0.9</lstol>
			<min_residual>1e-020</min_residual>
			<qnmethod>1</qnmethod>
			<time_stepper>
				<dtmin>0.01</dtmin>
				<dtmax>0.1</dtmax>
				<max_retries>5</max_retries>
				<opt_iter>10</opt_iter>
			</time_stepper>
			<analysis type="steady-state"/>
			<symmetric_stiffness>0</symmetric_stiffness>
		</Control>
		<Boundary>
			<rigid_body mat="2">
				<prescribed bc="z" lc="6">1</prescribed>
			</rigid_body>
		</Boundary>
		<Constraints>
		</Constraints>
	</Step>
	<Step name="Step02 Transient">
		<Control>
			<time_steps>72000</time_steps>
			<step_size>0.1</step_size>
			<max_refs>25</max_refs>
			<max_ups>0</max_ups>
			<diverge_reform>1</diverge_reform>
			<reform_each_time_step>1</reform_each_time_step>
			<dtol>0.001</dtol>
			<etol>0.01</etol>
			<rtol>0</rtol>
			<ptol>0.01</ptol>
			<ctol>0.01</ctol>
			<lstol>0.9</lstol>
			<min_residual>1e-020</min_residual>
			<qnmethod>1</qnmethod>
			<time_stepper>
				<dtmin>0.01</dtmin>
				<dtmax lc="1"></dtmax>
				<max_retries>5</max_retries>
				<opt_iter>10</opt_iter>
			</time_stepper>
			<symmetric_stiffness>0</symmetric_stiffness>
		</Control>
		<Boundary>
			<rigid_body mat="2">
				<force bc="z" lc="7">1</force>
			</rigid_body>
		</Boundary>
		<Constraints>
		</Constraints>
	</Step>
</febio_spec>
