<?xml version="1.0" encoding="ISO-8859-1"?>
<!--
Problem Description:
	Tied contact of multiphasic rectangular blocks in unconfined
	compression under a prescribed uniform normal traction
Main Features:
	Tied multiphasic contact
Secondary Features:
	Tied multiphasic domains each contain two shared solutes (one
	charged and the other neutral), and one non-shared solute (charged)
Materials:
	Multiphasic
Degrees of Freedom: 1540
Results:
	Steps Completed: 20
	Equilibrium Iterations: 58
	Right Hand Evaluations: 78
	Siffness Reformations: 58
Comments:
	The tied interface enforces continuity of the effective fluid
	pressure and the effective solute concentrations for those
	solutes shared by the two tied domains
-->
<febio_spec version="2.5">
	<Module type="multiphasic"/>
	<Control>
		<time_steps>20</time_steps>
		<step_size>0.1</step_size>
		<max_refs>15</max_refs>
		<max_ups>0</max_ups>
		<diverge_reform>1</diverge_reform>
		<reform_each_time_step>1</reform_each_time_step>
		<dtol>0.001</dtol>
		<etol>0.01</etol>
		<rtol>0</rtol>
		<ptol>0.01</ptol>
		<ctol>0.01</ctol>
		<lstol>0.9</lstol>
		<min_residual>1e-020</min_residual>
		<qnmethod>1</qnmethod>
		<time_stepper>
			<dtmin>0.01</dtmin>
			<dtmax>0.1</dtmax>
			<max_retries>5</max_retries>
			<opt_iter>10</opt_iter>
		</time_stepper>
		<symmetric_stiffness>0</symmetric_stiffness>
	</Control>
	<Globals>
		<Constants>
			<T>293</T>
			<R>8.314e-006</R>
			<Fc>9.65e-005</Fc>
		</Constants>
		<Solutes>
			<solute id="1" name="Na+">
				<charge_number>1</charge_number>
				<molar_mass>1</molar_mass>
				<density>1</density>
			</solute>
			<solute id="2" name="K+">
				<charge_number>1</charge_number>
				<molar_mass>1</molar_mass>
				<density>1</density>
			</solute>
			<solute id="3" name="Cl-">
				<charge_number>-1</charge_number>
				<molar_mass>1</molar_mass>
				<density>1</density>
			</solute>
			<solute id="4" name="Glc">
				<charge_number>0</charge_number>
				<molar_mass>1</molar_mass>
				<density>1</density>
			</solute>
		</Solutes>
	</Globals>
	<Material>
		<material id="1" name="Material1" type="multiphasic">
			<phi0>0.2</phi0>
			<fixed_charge_density>0</fixed_charge_density>
			<solid type="neo-Hookean">
				<density>1</density>
				<E>1</E>
				<v>0</v>
			</solid>
			<permeability type="perm-const-iso">
				<perm>1</perm>
			</permeability>
			<osmotic_coefficient type="osm-coef-const">
				<osmcoef>1</osmcoef>
			</osmotic_coefficient>
			<solute sol="1">
				<diffusivity type="diff-const-iso">
					<free_diff>2</free_diff>
					<diff>1</diff>
				</diffusivity>
				<solubility type="solub-const">
					<solub>1</solub>
				</solubility>
			</solute>
			<solute sol="3">
				<diffusivity type="diff-const-iso">
					<free_diff>1</free_diff>
					<diff>0.5</diff>
				</diffusivity>
				<solubility type="solub-const">
					<solub>1</solub>
				</solubility>
			</solute>
			<solute sol="4">
				<diffusivity type="diff-const-iso">
					<free_diff>2</free_diff>
					<diff>1</diff>
				</diffusivity>
				<solubility type="solub-const">
					<solub>1</solub>
				</solubility>
			</solute>
		</material>
		<material id="2" name="Material2" type="multiphasic">
			<phi0>0.2</phi0>
			<fixed_charge_density>0</fixed_charge_density>
			<solid type="neo-Hookean">
				<density>1</density>
				<E>2</E>
				<v>0</v>
			</solid>
			<permeability type="perm-const-iso">
				<perm>1</perm>
			</permeability>
			<osmotic_coefficient type="osm-coef-const">
				<osmcoef>1</osmcoef>
			</osmotic_coefficient>
			<solute sol="2">
				<diffusivity type="diff-const-iso">
					<free_diff>2</free_diff>
					<diff>1</diff>
				</diffusivity>
				<solubility type="solub-const">
					<solub>1</solub>
				</solubility>
			</solute>
			<solute sol="3">
				<diffusivity type="diff-const-iso">
					<free_diff>1</free_diff>
					<diff>0.5</diff>
				</diffusivity>
				<solubility type="solub-const">
					<solub>1</solub>
				</solubility>
			</solute>
			<solute sol="4">
				<diffusivity type="diff-const-iso">
					<free_diff>2</free_diff>
					<diff>1</diff>
				</diffusivity>
				<solubility type="solub-const">
					<solub>1</solub>
				</solubility>
			</solute>
		</material>
	</Material>
	<Geometry>
		<Nodes name="mp09">
			<node id="1">-5.0000000e-001,-2.7755576e-017, 0.0000000e+000</node>
			<node id="2">-5.0000000e-001,-2.7755576e-017, 2.0000000e-001</node>
			<node id="3">-5.0000000e-001, 1.0000000e-001, 0.0000000e+000</node>
			<node id="4">-5.0000000e-001, 1.0000000e-001, 2.0000000e-001</node>
			<node id="5">-5.0000000e-001, 2.0000000e-001, 0.0000000e+000</node>
			<node id="6">-5.0000000e-001, 2.0000000e-001, 2.0000000e-001</node>
			<node id="7">-5.0000000e-001, 3.0000000e-001, 0.0000000e+000</node>
			<node id="8">-5.0000000e-001, 3.0000000e-001, 2.0000000e-001</node>
			<node id="9">-5.0000000e-001, 4.0000000e-001, 0.0000000e+000</node>
			<node id="10">-5.0000000e-001, 4.0000000e-001, 2.0000000e-001</node>
			<node id="11">-5.0000000e-001, 5.0000000e-001, 0.0000000e+000</node>
			<node id="12">-5.0000000e-001, 5.0000000e-001, 2.0000000e-001</node>
			<node id="13">-4.0000000e-001,-2.7755576e-017, 0.0000000e+000</node>
			<node id="14">-4.0000000e-001,-2.7755576e-017, 2.0000000e-001</node>
			<node id="15">-4.0000000e-001, 1.0000000e-001, 0.0000000e+000</node>
			<node id="16">-4.0000000e-001, 1.0000000e-001, 2.0000000e-001</node>
			<node id="17">-4.0000000e-001, 2.0000000e-001, 0.0000000e+000</node>
			<node id="18">-4.0000000e-001, 2.0000000e-001, 2.0000000e-001</node>
			<node id="19">-4.0000000e-001, 3.0000000e-001, 0.0000000e+000</node>
			<node id="20">-4.0000000e-001, 3.0000000e-001, 2.0000000e-001</node>
<!-- ... 244 like lines cut -->
		</Nodes>
		<Elements type="hex8" mat="1" name="Part3">
			<elem id="1">     1,    13,    15,     3,     2,    14,    16,     4</elem>
			<elem id="2">     3,    15,    17,     5,     4,    16,    18,     6</elem>
			<elem id="3">     5,    17,    19,     7,     6,    18,    20,     8</elem>
			<elem id="4">     7,    19,    21,     9,     8,    20,    22,    10</elem>
			<elem id="5">     9,    21,    23,    11,    10,    22,    24,    12</elem>
			<elem id="6">    13,    25,    27,    15,    14,    26,    28,    16</elem>
			<elem id="7">    15,    27,    29,    17,    16,    28,    30,    18</elem>
			<elem id="8">    17,    29,    31,    19,    18,    30,    32,    20</elem>
			<elem id="9">    19,    31,    33,    21,    20,    32,    34,    22</elem>
			<elem id="10">    21,    33,    35,    23,    22,    34,    36,    24</elem>
			<elem id="11">    25,    37,    39,    27,    26,    38,    40,    28</elem>
			<elem id="12">    27,    39,    41,    29,    28,    40,    42,    30</elem>
			<elem id="13">    29,    41,    43,    31,    30,    42,    44,    32</elem>
			<elem id="14">    31,    43,    45,    33,    32,    44,    46,    34</elem>
			<elem id="15">    33,    45,    47,    35,    34,    46,    48,    36</elem>
			<elem id="16">    37,    49,    51,    39,    38,    50,    52,    40</elem>
			<elem id="17">    39,    51,    53,    41,    40,    52,    54,    42</elem>
			<elem id="18">    41,    53,    55,    43,    42,    54,    56,    44</elem>
			<elem id="19">    43,    55,    57,    45,    44,    56,    58,    46</elem>
			<elem id="20">    45,    57,    59,    47,    46,    58,    60,    48</elem>
<!-- ... 30 like lines cut -->
		</Elements>
		<Elements type="hex8" mat="2" name="Part4">
			<elem id="51">   133,   145,   147,   135,   134,   146,   148,   136</elem>
			<elem id="52">   135,   147,   149,   137,   136,   148,   150,   138</elem>
			<elem id="53">   137,   149,   151,   139,   138,   150,   152,   140</elem>
			<elem id="54">   139,   151,   153,   141,   140,   152,   154,   142</elem>
			<elem id="55">   141,   153,   155,   143,   142,   154,   156,   144</elem>
			<elem id="56">   145,   157,   159,   147,   146,   158,   160,   148</elem>
			<elem id="57">   147,   159,   161,   149,   148,   160,   162,   150</elem>
			<elem id="58">   149,   161,   163,   151,   150,   162,   164,   152</elem>
			<elem id="59">   151,   163,   165,   153,   152,   164,   166,   154</elem>
			<elem id="60">   153,   165,   167,   155,   154,   166,   168,   156</elem>
			<elem id="61">   157,   169,   171,   159,   158,   170,   172,   160</elem>
			<elem id="62">   159,   171,   173,   161,   160,   172,   174,   162</elem>
			<elem id="63">   161,   173,   175,   163,   162,   174,   176,   164</elem>
			<elem id="64">   163,   175,   177,   165,   164,   176,   178,   166</elem>
			<elem id="65">   165,   177,   179,   167,   166,   178,   180,   168</elem>
			<elem id="66">   169,   181,   183,   171,   170,   182,   184,   172</elem>
			<elem id="67">   171,   183,   185,   173,   172,   184,   186,   174</elem>
			<elem id="68">   173,   185,   187,   175,   174,   186,   188,   176</elem>
			<elem id="69">   175,   187,   189,   177,   176,   188,   190,   178</elem>
			<elem id="70">   177,   189,   191,   179,   178,   190,   192,   180</elem>
<!-- ... 30 like lines cut -->
		</Elements>
		<NodeSet name="FixedDisplacement01">
			<node id="1"/>
			<node id="2"/>
			<node id="3"/>
			<node id="4"/>
			<node id="5"/>
			<node id="6"/>
			<node id="7"/>
			<node id="8"/>
			<node id="9"/>
			<node id="10"/>
			<node id="11"/>
			<node id="12"/>
			<node id="13"/>
			<node id="14"/>
			<node id="15"/>
			<node id="16"/>
			<node id="17"/>
			<node id="18"/>
			<node id="19"/>
			<node id="20"/>
<!-- ... 508 like lines cut -->
		</NodeSet>
		<NodeSet name="FixedDisplacement02">
			<node id="133"/>
			<node id="134"/>
			<node id="145"/>
			<node id="146"/>
			<node id="157"/>
			<node id="158"/>
			<node id="169"/>
			<node id="170"/>
			<node id="181"/>
			<node id="182"/>
			<node id="193"/>
			<node id="194"/>
			<node id="205"/>
			<node id="206"/>
			<node id="217"/>
			<node id="218"/>
			<node id="229"/>
			<node id="230"/>
			<node id="241"/>
			<node id="242"/>
			<node id="253"/>
			<node id="254"/>
		</NodeSet>
		<NodeSet name="PrescribedBC18">
			<node id="11"/>
			<node id="12"/>
			<node id="23"/>
			<node id="24"/>
			<node id="35"/>
			<node id="36"/>
			<node id="47"/>
			<node id="48"/>
			<node id="59"/>
			<node id="60"/>
			<node id="71"/>
			<node id="72"/>
			<node id="83"/>
			<node id="84"/>
			<node id="95"/>
			<node id="96"/>
			<node id="107"/>
			<node id="108"/>
			<node id="119"/>
			<node id="120"/>
			<node id="131"/>
			<node id="132"/>
		</NodeSet>
		<NodeSet name="PrescribedBC19">
			<node id="11"/>
			<node id="12"/>
			<node id="23"/>
			<node id="24"/>
			<node id="35"/>
			<node id="36"/>
			<node id="47"/>
			<node id="48"/>
			<node id="59"/>
			<node id="60"/>
			<node id="71"/>
			<node id="72"/>
			<node id="83"/>
			<node id="84"/>
			<node id="95"/>
			<node id="96"/>
			<node id="107"/>
			<node id="108"/>
			<node id="119"/>
			<node id="120"/>
			<node id="131"/>
			<node id="132"/>
		</NodeSet>
		<NodeSet name="PrescribedBC20">
			<node id="11"/>
			<node id="12"/>
			<node id="23"/>
			<node id="24"/>
			<node id="35"/>
			<node id="36"/>
			<node id="47"/>
			<node id="48"/>
			<node id="59"/>
			<node id="60"/>
			<node id="71"/>
			<node id="72"/>
			<node id="83"/>
			<node id="84"/>
			<node id="95"/>
			<node id="96"/>
			<node id="107"/>
			<node id="108"/>
			<node id="119"/>
			<node id="120"/>
			<node id="131"/>
			<node id="132"/>
		</NodeSet>
		<NodeSet name="PrescribedBC21">
			<node id="11"/>
			<node id="12"/>
			<node id="23"/>
			<node id="24"/>
			<node id="35"/>
			<node id="36"/>
			<node id="47"/>
			<node id="48"/>
			<node id="59"/>
			<node id="60"/>
			<node id="71"/>
			<node id="72"/>
			<node id="83"/>
			<node id="84"/>
			<node id="95"/>
			<node id="96"/>
			<node id="107"/>
			<node id="108"/>
			<node id="119"/>
			<node id="120"/>
			<node id="131"/>
			<node id="132"/>
		</NodeSet>
		<NodeSet name="InitialConcentration01">
			<node id="133"/>
			<node id="134"/>
			<node id="135"/>
			<node id="136"/>
			<node id="137"/>
			<node id="138"/>
			<node id="139"/>
			<node id="140"/>
			<node id="141"/>
			<node id="142"/>
			<node id="143"/>
			<node id="144"/>
			<node id="145"/>
			<node id="146"/>
			<node id="147"/>
			<node id="148"/>
			<node id="149"/>
			<node id="150"/>
			<node id="151"/>
			<node id="152"/>
<!-- ... 112 like lines cut -->
		</NodeSet>
		<NodeSet name="InitialConcentration02">
			<node id="133"/>
			<node id="134"/>
			<node id="135"/>
			<node id="136"/>
			<node id="137"/>
			<node id="138"/>
			<node id="139"/>
			<node id="140"/>
			<node id="141"/>
			<node id="142"/>
			<node id="143"/>
			<node id="144"/>
			<node id="145"/>
			<node id="146"/>
			<node id="147"/>
			<node id="148"/>
			<node id="149"/>
			<node id="150"/>
			<node id="151"/>
			<node id="152"/>
<!-- ... 112 like lines cut -->
		</NodeSet>
		<NodeSet name="InitialConcentration03">
			<node id="1"/>
			<node id="2"/>
			<node id="3"/>
			<node id="4"/>
			<node id="5"/>
			<node id="6"/>
			<node id="7"/>
			<node id="8"/>
			<node id="9"/>
			<node id="10"/>
			<node id="11"/>
			<node id="12"/>
			<node id="13"/>
			<node id="14"/>
			<node id="15"/>
			<node id="16"/>
			<node id="17"/>
			<node id="18"/>
			<node id="19"/>
			<node id="20"/>
<!-- ... 112 like lines cut -->
		</NodeSet>
		<NodeSet name="InitialConcentration04">
			<node id="1"/>
			<node id="2"/>
			<node id="3"/>
			<node id="4"/>
			<node id="5"/>
			<node id="6"/>
			<node id="7"/>
			<node id="8"/>
			<node id="9"/>
			<node id="10"/>
			<node id="11"/>
			<node id="12"/>
			<node id="13"/>
			<node id="14"/>
			<node id="15"/>
			<node id="16"/>
			<node id="17"/>
			<node id="18"/>
			<node id="19"/>
			<node id="20"/>
<!-- ... 112 like lines cut -->
		</NodeSet>
		<NodeSet name="InitialFluidPressure01">
			<node id="1"/>
			<node id="2"/>
			<node id="3"/>
			<node id="4"/>
			<node id="5"/>
			<node id="6"/>
			<node id="7"/>
			<node id="8"/>
			<node id="9"/>
			<node id="10"/>
			<node id="11"/>
			<node id="12"/>
			<node id="13"/>
			<node id="14"/>
			<node id="15"/>
			<node id="16"/>
			<node id="17"/>
			<node id="18"/>
			<node id="19"/>
			<node id="20"/>
<!-- ... 244 like lines cut -->
		</NodeSet>
		<Surface name="NormalTraction1">
			<quad4 id="1">    23,    11,    12,    24</quad4>
			<quad4 id="2">    35,    23,    24,    36</quad4>
			<quad4 id="3">    47,    35,    36,    48</quad4>
			<quad4 id="4">    59,    47,    48,    60</quad4>
			<quad4 id="5">    71,    59,    60,    72</quad4>
			<quad4 id="6">    83,    71,    72,    84</quad4>
			<quad4 id="7">    95,    83,    84,    96</quad4>
			<quad4 id="8">   107,    95,    96,   108</quad4>
			<quad4 id="9">   119,   107,   108,   120</quad4>
			<quad4 id="10">   131,   119,   120,   132</quad4>
		</Surface>
		<Surface name="MasterSurface01">
			<quad4 id="1">     1,    13,    14,     2</quad4>
			<quad4 id="2">    13,    25,    26,    14</quad4>
			<quad4 id="3">    25,    37,    38,    26</quad4>
			<quad4 id="4">    37,    49,    50,    38</quad4>
			<quad4 id="5">    49,    61,    62,    50</quad4>
			<quad4 id="6">    61,    73,    74,    62</quad4>
			<quad4 id="7">    73,    85,    86,    74</quad4>
			<quad4 id="8">    85,    97,    98,    86</quad4>
			<quad4 id="9">    97,   109,   110,    98</quad4>
			<quad4 id="10">   109,   121,   122,   110</quad4>
		</Surface>
		<Surface name="SlaveSurface01">
			<quad4 id="1">   155,   143,   144,   156</quad4>
			<quad4 id="2">   167,   155,   156,   168</quad4>
			<quad4 id="3">   179,   167,   168,   180</quad4>
			<quad4 id="4">   191,   179,   180,   192</quad4>
			<quad4 id="5">   203,   191,   192,   204</quad4>
			<quad4 id="6">   215,   203,   204,   216</quad4>
			<quad4 id="7">   227,   215,   216,   228</quad4>
			<quad4 id="8">   239,   227,   228,   240</quad4>
			<quad4 id="9">   251,   239,   240,   252</quad4>
			<quad4 id="10">   263,   251,   252,   264</quad4>
		</Surface>
		<ElementSet name="unnamed_set01">
			<elem id="1"/>
		</ElementSet>
		<SurfacePair name="TiedBiphasic01">
			<master surface="MasterSurface01"/>
			<slave surface="SlaveSurface01"/>
		</SurfacePair>
	</Geometry>
	<Boundary>
		<fix bc="z" node_set="FixedDisplacement01"/>
		<fix bc="x,y" node_set="FixedDisplacement02"/>
		<prescribe bc="p" node_set="PrescribedBC18">
			<scale lc="1">1</scale>
			<relative>0</relative>
		</prescribe>
		<prescribe bc="c1" node_set="PrescribedBC19">
			<scale lc="2">1</scale>
			<relative>0</relative>
		</prescribe>
		<prescribe bc="c3" node_set="PrescribedBC20">
			<scale lc="3">1</scale>
			<relative>0</relative>
		</prescribe>
		<prescribe bc="c4" node_set="PrescribedBC21">
			<scale lc="4">1</scale>
			<relative>0</relative>
		</prescribe>
	</Boundary>
	<Loads>
		<surface_load type="normal_traction" surface="NormalTraction1">
			<traction lc="5">1</traction>
			<linear>0</linear>
			<effective>0</effective>
		</surface_load>
	</Loads>
	<Contact>
		<contact type="tied-multiphasic" name="TiedBiphasic01" surface_pair="TiedBiphasic01">
			<laugon>0</laugon>
			<tolerance>0.2</tolerance>
			<gaptol>0</gaptol>
			<ptol>0</ptol>
			<penalty>10</penalty>
			<auto_penalty>1</auto_penalty>
			<two_pass>1</two_pass>
			<search_tol>0.01</search_tol>
			<pressure_penalty>10</pressure_penalty>
			<concentration_penalty>10</concentration_penalty>
			<symmetric_stiffness>0</symmetric_stiffness>
			<search_radius>1</search_radius>
			<minaug>0</minaug>
			<maxaug>10</maxaug>
		</contact>
	</Contact>
	<Initial>
		<init bc="c2" node_set="InitialConcentration01">
			<value>145</value>
		</init>
		<init bc="c3" node_set="InitialConcentration02">
			<value>145</value>
		</init>
		<init bc="c1" node_set="InitialConcentration03">
			<value>145</value>
		</init>
		<init bc="c3" node_set="InitialConcentration04">
			<value>145</value>
		</init>
		<init bc="p" node_set="InitialFluidPressure01">
			<value>-0.706441</value>
		</init>
	</Initial>
	<LoadData>
		<loadcurve id="1" type="smooth">
			<point>0,-0.70644058</point>
			<point>1,-0.7308006</point>
		</loadcurve>
		<loadcurve id="2" type="step">
			<point>0,0</point>
			<point>1,145</point>
		</loadcurve>
		<loadcurve id="3" type="step">
			<point>0,0</point>
			<point>1,145</point>
		</loadcurve>
		<loadcurve id="4" type="smooth">
			<point>0,0</point>
			<point>1,10</point>
		</loadcurve>
		<loadcurve id="5" type="smooth">
			<point>0,0</point>
			<point>1,-0.2</point>
		</loadcurve>
	</LoadData>
	<Output>
		<plotfile type="febio">
			<var type="contact gap"/>
			<var type="contact pressure"/>
			<var type="contact traction"/>
			<var type="displacement"/>
			<var type="relative volume"/>
			<var type="stress"/>
			<var type="effective fluid pressure"/>
			<var type="fluid pressure"/>
			<var type="fluid flux"/>
			<var type="osmolarity"/>
			<var type="effective solute concentration"/>
			<var type="electric potential"/>
			<var type="solute concentration"/>
			<var type="solute flux"/>
		</plotfile>
		<logfile>
			<element_data data="sy" elem_set="unnamed_set01"/>
		</logfile>
	</Output>
</febio_spec>
