<?xml version="1.0" encoding="ISO-8859-1"?>
<febio_spec version="2.5">
	<Module type="solid"/>
	<Control>
		<time_steps>1</time_steps>
		<step_size>1</step_size>
		<max_refs>15</max_refs>
		<max_ups>10</max_ups>
		<diverge_reform>1</diverge_reform>
		<reform_each_time_step>1</reform_each_time_step>
		<dtol>0.001</dtol>
		<etol>0.01</etol>
		<rtol>0</rtol>
		<lstol>0.9</lstol>
		<min_residual>1e-020</min_residual>
		<qnmethod>0</qnmethod>
		<time_stepper>
			<dtmin>0.01</dtmin>
			<dtmax>0.1</dtmax>
			<max_retries>5</max_retries>
			<opt_iter>10</opt_iter>
		</time_stepper>
		<analysis type="static"/>
	</Control>
	<Globals>
		<Constants>
			<T>0</T>
			<R>0</R>
			<Fc>0</Fc>
		</Constants>
	</Globals>
	<Material>
		<material id="1" name="Material1"></material>
	</Material>
	<Geometry>
		<Nodes name="pi04">
			<node id="1">-5.0000000e-001,-5.0000000e-001, 0.0000000e+000</node>
			<node id="2">-5.0000000e-001,-5.0000000e-001, 2.0000000e-001</node>
			<node id="3">-5.0000000e-001,-5.0000000e-001, 4.0000000e-001</node>
			<node id="4">-5.0000000e-001,-5.0000000e-001, 6.0000000e-001</node>
			<node id="5">-5.0000000e-001,-5.0000000e-001, 8.0000000e-001</node>
			<node id="6">-5.0000000e-001,-5.0000000e-001, 1.0000000e+000</node>
			<node id="7">-5.0000000e-001,-3.0000000e-001, 0.0000000e+000</node>
			<node id="8">-5.0000000e-001,-3.0000000e-001, 2.0000000e-001</node>
			<node id="9">-5.0000000e-001,-3.0000000e-001, 4.0000000e-001</node>
			<node id="10">-5.0000000e-001,-3.0000000e-001, 6.0000000e-001</node>
			<node id="11">-5.0000000e-001,-3.0000000e-001, 8.0000000e-001</node>
			<node id="12">-5.0000000e-001,-3.0000000e-001, 1.0000000e+000</node>
			<node id="13">-5.0000000e-001,-1.0000000e-001, 0.0000000e+000</node>
			<node id="14">-5.0000000e-001,-1.0000000e-001, 2.0000000e-001</node>
			<node id="15">-5.0000000e-001,-1.0000000e-001, 4.0000000e-001</node>
			<node id="16">-5.0000000e-001,-1.0000000e-001, 6.0000000e-001</node>
			<node id="17">-5.0000000e-001,-1.0000000e-001, 8.0000000e-001</node>
			<node id="18">-5.0000000e-001,-1.0000000e-001, 1.0000000e+000</node>
			<node id="19">-5.0000000e-001, 1.0000000e-001, 0.0000000e+000</node>
			<node id="20">-5.0000000e-001, 1.0000000e-001, 2.0000000e-001</node>
<!-- ... 196 like lines cut -->
		</Nodes>
		<Elements type="hex8" mat="1" name="Part1">
			<elem id="1">     1,    37,    43,     7,     2,    38,    44,     8</elem>
			<elem id="2">     2,    38,    44,     8,     3,    39,    45,     9</elem>
			<elem id="3">     3,    39,    45,     9,     4,    40,    46,    10</elem>
			<elem id="4">     4,    40,    46,    10,     5,    41,    47,    11</elem>
			<elem id="5">     5,    41,    47,    11,     6,    42,    48,    12</elem>
			<elem id="6">     7,    43,    49,    13,     8,    44,    50,    14</elem>
			<elem id="7">     8,    44,    50,    14,     9,    45,    51,    15</elem>
			<elem id="8">     9,    45,    51,    15,    10,    46,    52,    16</elem>
			<elem id="9">    10,    46,    52,    16,    11,    47,    53,    17</elem>
			<elem id="10">    11,    47,    53,    17,    12,    48,    54,    18</elem>
			<elem id="11">    13,    49,    55,    19,    14,    50,    56,    20</elem>
			<elem id="12">    14,    50,    56,    20,    15,    51,    57,    21</elem>
			<elem id="13">    15,    51,    57,    21,    16,    52,    58,    22</elem>
			<elem id="14">    16,    52,    58,    22,    17,    53,    59,    23</elem>
			<elem id="15">    17,    53,    59,    23,    18,    54,    60,    24</elem>
			<elem id="16">    19,    55,    61,    25,    20,    56,    62,    26</elem>
			<elem id="17">    20,    56,    62,    26,    21,    57,    63,    27</elem>
			<elem id="18">    21,    57,    63,    27,    22,    58,    64,    28</elem>
			<elem id="19">    22,    58,    64,    28,    23,    59,    65,    29</elem>
			<elem id="20">    23,    59,    65,    29,    24,    60,    66,    30</elem>
<!-- ... 105 like lines cut -->
		</Elements>
		<NodeSet name="FixedDisplacement01">
			<node id="1"/>
			<node id="2"/>
			<node id="3"/>
			<node id="4"/>
			<node id="5"/>
			<node id="6"/>
			<node id="7"/>
			<node id="8"/>
			<node id="9"/>
			<node id="10"/>
			<node id="11"/>
			<node id="12"/>
			<node id="13"/>
			<node id="14"/>
			<node id="15"/>
			<node id="16"/>
			<node id="17"/>
			<node id="18"/>
			<node id="19"/>
			<node id="20"/>
<!-- ... 16 like lines cut -->
		</NodeSet>
		<NodeSet name="FixedDisplacement02">
			<node id="181"/>
			<node id="182"/>
			<node id="183"/>
			<node id="184"/>
			<node id="185"/>
			<node id="186"/>
			<node id="187"/>
			<node id="188"/>
			<node id="189"/>
			<node id="190"/>
			<node id="191"/>
			<node id="192"/>
			<node id="193"/>
			<node id="194"/>
			<node id="195"/>
			<node id="196"/>
			<node id="197"/>
			<node id="198"/>
			<node id="199"/>
			<node id="200"/>
<!-- ... 16 like lines cut -->
		</NodeSet>
		<NodeSet name="PrescribedBC195">
			<node id="181"/>
			<node id="182"/>
			<node id="183"/>
			<node id="184"/>
			<node id="185"/>
			<node id="186"/>
			<node id="187"/>
			<node id="188"/>
			<node id="189"/>
			<node id="190"/>
			<node id="191"/>
			<node id="192"/>
			<node id="193"/>
			<node id="194"/>
			<node id="195"/>
			<node id="196"/>
			<node id="197"/>
			<node id="198"/>
			<node id="199"/>
			<node id="200"/>
<!-- ... 16 like lines cut -->
		</NodeSet>
		<ElementSet name="unnamed_set01">
			<elem id="65"/>
		</ElementSet>
	</Geometry>
	<MeshData>
		<ElementData name="pre_stretch">
			<elem id="1">1.04358</elem>
			<elem id="2">1.042</elem>
			<elem id="3">1.04176</elem>
			<elem id="4">1.042</elem>
			<elem id="5">1.04358</elem>
			<elem id="6">1.042</elem>
			<elem id="7">1.03969</elem>
			<elem id="8">1.03891</elem>
			<elem id="9">1.03969</elem>
			<elem id="10">1.042</elem>
			<elem id="11">1.04176</elem>
			<elem id="12">1.03891</elem>
			<elem id="13">1.03778</elem>
			<elem id="14">1.03891</elem>
			<elem id="15">1.04176</elem>
			<elem id="16">1.042</elem>
			<elem id="17">1.03969</elem>
			<elem id="18">1.03891</elem>
			<elem id="19">1.03969</elem>
			<elem id="20">1.042</elem>
<!-- ... 105 like lines cut -->
		</ElementData>
	</MeshData>
	<Boundary>
		<fix bc="x,y,z" node_set="FixedDisplacement01"/>
		<fix bc="y,z" node_set="FixedDisplacement02"/>
		<prescribe bc="x" node_set="PrescribedBC195">
			<scale lc="1">1</scale>
			<relative>0</relative>
		</prescribe>
	</Boundary>
	<LoadData>
		<loadcurve id="1" type="smooth">
			<point>0,0</point>
			<point>1,0</point>
		</loadcurve>
	</LoadData>
	<Output>
		<plotfile type="febio">
			<var type="displacement"/>
			<var type="stress"/>
		</plotfile>
		<logfile>
			<element_data data="s1" elem_set="unnamed_set01"/>
		</logfile>
	</Output>
</febio_spec>
