<?xml version="1.0" encoding="ISO-8859-1"?>
<febio_spec version="2.5">
	<Module type="solid"/>
	<Control>
		<time_steps>48</time_steps>
		<step_size>0.05</step_size>
		<max_refs>15</max_refs>
		<max_ups>10</max_ups>
		<diverge_reform>1</diverge_reform>
		<reform_each_time_step>1</reform_each_time_step>
		<dtol>0.01</dtol>
		<etol>0.01</etol>
		<rtol>0</rtol>
		<lstol>0.9</lstol>
		<min_residual>1e-020</min_residual>
		<qnmethod>0</qnmethod>
		<time_stepper>
			<dtmin>0.01</dtmin>
			<dtmax lc="1"></dtmax>
			<max_retries>5</max_retries>
			<opt_iter>15</opt_iter>
		</time_stepper>
		<analysis type="static"/>
	</Control>
	<Globals>
		<Constants>
			<T>0</T>
			<R>0</R>
			<Fc>0</Fc>
		</Constants>
	</Globals>
	<Material>
		<material id="1" name="Material01"></material>
		<material id="2" name="Material02"></material>
	</Material>
	<Geometry>
		<Nodes name="Object01">
			<node id="1">-1.6548750e+003,-6.9872500e+002,-2.2065000e+002</node>
			<node id="2">-1.6548750e+003,-6.9872500e+002,-7.3550000e+001</node>
			<node id="3">-1.6548750e+003,-6.9872500e+002, 7.3550000e+001</node>
			<node id="4">-1.6548750e+003,-6.9872500e+002, 2.2065000e+002</node>
			<node id="5">-1.6548750e+003,-5.5898000e+002,-2.2065000e+002</node>
			<node id="6">-1.6548750e+003,-5.5898000e+002,-7.3550000e+001</node>
			<node id="7">-1.6548750e+003,-5.5898000e+002, 7.3550000e+001</node>
			<node id="8">-1.6548750e+003,-5.5898000e+002, 2.2065000e+002</node>
			<node id="9">-1.6548750e+003,-4.1923500e+002,-2.2065000e+002</node>
			<node id="10">-1.6548750e+003,-4.1923500e+002,-7.3550000e+001</node>
			<node id="11">-1.6548750e+003,-4.1923500e+002, 7.3550000e+001</node>
			<node id="12">-1.6548750e+003,-4.1923500e+002, 2.2065000e+002</node>
			<node id="13">-1.6548750e+003,-2.7949000e+002,-2.2065000e+002</node>
			<node id="14">-1.6548750e+003,-2.7949000e+002,-7.3550000e+001</node>
			<node id="15">-1.6548750e+003,-2.7949000e+002, 7.3550000e+001</node>
			<node id="16">-1.6548750e+003,-2.7949000e+002, 2.2065000e+002</node>
			<node id="17">-1.6548750e+003,-1.3974500e+002,-2.2065000e+002</node>
			<node id="18">-1.6548750e+003,-1.3974500e+002,-7.3550000e+001</node>
			<node id="19">-1.6548750e+003,-1.3974500e+002, 7.3550000e+001</node>
			<node id="20">-1.6548750e+003,-1.3974500e+002, 2.2065000e+002</node>
<!-- ... 904 like lines cut -->
		</Nodes>
		<Elements type="hex8" mat="1" name="Part1">
			<elem id="1">     1,    45,    49,     5,     2,    46,    50,     6</elem>
			<elem id="2">     2,    46,    50,     6,     3,    47,    51,     7</elem>
			<elem id="3">     3,    47,    51,     7,     4,    48,    52,     8</elem>
			<elem id="4">     5,    49,    53,     9,     6,    50,    54,    10</elem>
			<elem id="5">     6,    50,    54,    10,     7,    51,    55,    11</elem>
			<elem id="6">     7,    51,    55,    11,     8,    52,    56,    12</elem>
			<elem id="7">     9,    53,    57,    13,    10,    54,    58,    14</elem>
			<elem id="8">    10,    54,    58,    14,    11,    55,    59,    15</elem>
			<elem id="9">    11,    55,    59,    15,    12,    56,    60,    16</elem>
			<elem id="10">    13,    57,    61,    17,    14,    58,    62,    18</elem>
			<elem id="11">    14,    58,    62,    18,    15,    59,    63,    19</elem>
			<elem id="12">    15,    59,    63,    19,    16,    60,    64,    20</elem>
			<elem id="13">    17,    61,    65,    21,    18,    62,    66,    22</elem>
			<elem id="14">    18,    62,    66,    22,    19,    63,    67,    23</elem>
			<elem id="15">    19,    63,    67,    23,    20,    64,    68,    24</elem>
			<elem id="16">    21,    65,    69,    25,    22,    66,    70,    26</elem>
			<elem id="17">    22,    66,    70,    26,    23,    67,    71,    27</elem>
			<elem id="18">    23,    67,    71,    27,    24,    68,    72,    28</elem>
			<elem id="19">    25,    69,    73,    29,    26,    70,    74,    30</elem>
			<elem id="20">    26,    70,    74,    30,    27,    71,    75,    31</elem>
<!-- ... 280 like lines cut -->
		</Elements>
		<Elements type="hex8" mat="2" name="Part2">
			<elem id="301">   441,   485,   489,   445,   442,   486,   490,   446</elem>
			<elem id="302">   442,   486,   490,   446,   443,   487,   491,   447</elem>
			<elem id="303">   443,   487,   491,   447,   444,   488,   492,   448</elem>
			<elem id="304">   445,   489,   493,   449,   446,   490,   494,   450</elem>
			<elem id="305">   446,   490,   494,   450,   447,   491,   495,   451</elem>
			<elem id="306">   447,   491,   495,   451,   448,   492,   496,   452</elem>
			<elem id="307">   449,   493,   497,   453,   450,   494,   498,   454</elem>
			<elem id="308">   450,   494,   498,   454,   451,   495,   499,   455</elem>
			<elem id="309">   451,   495,   499,   455,   452,   496,   500,   456</elem>
			<elem id="310">   453,   497,   501,   457,   454,   498,   502,   458</elem>
			<elem id="311">   454,   498,   502,   458,   455,   499,   503,   459</elem>
			<elem id="312">   455,   499,   503,   459,   456,   500,   504,   460</elem>
			<elem id="313">   457,   501,   505,   461,   458,   502,   506,   462</elem>
			<elem id="314">   458,   502,   506,   462,   459,   503,   507,   463</elem>
			<elem id="315">   459,   503,   507,   463,   460,   504,   508,   464</elem>
			<elem id="316">   461,   505,   509,   465,   462,   506,   510,   466</elem>
			<elem id="317">   462,   506,   510,   466,   463,   507,   511,   467</elem>
			<elem id="318">   463,   507,   511,   467,   464,   508,   512,   468</elem>
			<elem id="319">   465,   509,   513,   469,   466,   510,   514,   470</elem>
			<elem id="320">   466,   510,   514,   470,   467,   511,   515,   471</elem>
<!-- ... 280 like lines cut -->
		</Elements>
		<NodeSet name="bc1">
			<node id="1"/>
			<node id="5"/>
			<node id="9"/>
			<node id="13"/>
			<node id="17"/>
			<node id="21"/>
			<node id="25"/>
			<node id="29"/>
			<node id="33"/>
			<node id="37"/>
			<node id="41"/>
			<node id="45"/>
			<node id="49"/>
			<node id="53"/>
			<node id="57"/>
			<node id="61"/>
			<node id="65"/>
			<node id="69"/>
			<node id="73"/>
			<node id="77"/>
<!-- ... 211 like lines cut -->
		</NodeSet>
		<NodeSet name="bc2">
			<node id="1"/>
			<node id="924"/>
		</NodeSet>
		<NodeSet name="bc2">
			<node id="1"/>
			<node id="924"/>
		</NodeSet>
		<NodeSet name="bc2">
			<node id="1"/>
			<node id="924"/>
		</NodeSet>
	</Geometry>
	<Boundary>
		<fix bc="z" node_set="bc1"/>
		<fix bc="x" node_set="bc2"/>
		<fix bc="y" node_set="bc2"/>
		<fix bc="z" node_set="bc2"/>
	</Boundary>
	<LoadData>
		<loadcurve id="1" type="step">
			<point>0.05,1</point>
			<point>0.1,1</point>
			<point>0.15,1</point>
			<point>0.2,1</point>
			<point>0.25,1</point>
			<point>0.3,1</point>
			<point>0.35,1</point>
			<point>0.4,1</point>
			<point>0.45,1</point>
			<point>0.5,1</point>
			<point>0.55,1</point>
			<point>0.6,1</point>
			<point>0.65,1</point>
			<point>0.7,1</point>
			<point>0.75,1</point>
			<point>0.8,1</point>
			<point>0.85,1</point>
			<point>0.9,1</point>
			<point>0.95,1</point>
			<point>1,1</point>
<!-- ... 28 like lines cut -->
		</loadcurve>
	</LoadData>
	<Output>
		<plotfile type="febio">
			<var type="displacement"/>
			<var type="fiber vector"/>
			<var type="stress"/>
		</plotfile>
		<logfile>
			<element_data data="J"/>
		</logfile>
	</Output>
</febio_spec>
