<?xml version="1.0" encoding="ISO-8859-1"?>
<febio_spec version="2.5">
	<Module type="multiphasic"/>
	<Globals>
		<Constants>
			<T>298</T>
			<R>6.2063</R>
			<Fc>9.6485e+022</Fc>
		</Constants>
		<Solutes>
			<solute id="1" name="VEGF165">
				<charge_number>0</charge_number>
				<molar_mass>38.2</molar_mass>
				<density>1430</density>
			</solute>
		</Solutes>
	</Globals>
	<Material>
		<material id="1" name="s0" type="multiphasic">
			<phi0>0.15</phi0>
			<fixed_charge_density>0</fixed_charge_density>
			<permeability type="perm-const-iso">
				<perm>3.5e-017</perm>
			</permeability>
			<osmotic_coefficient type="osm-coef-const">
				<osmcoef>8.64e-037</osmcoef>
			</osmotic_coefficient>
			<solute sol="1">
				<diffusivity type="diff-const-iso">
					<free_diff>6.88e-011</free_diff>
					<diff>6.88e-011</diff>
				</diffusivity>
				<solubility type="solub-const">
					<solub>1</solub>
				</solubility>
			</solute>
		</material>
	</Material>
	<Geometry>
		<Nodes name="Object01">
			<node id="1">-5.0000000e+002,-5.0000000e+002, 0.0000000e+000</node>
			<node id="2">-5.0000000e+002,-5.0000000e+002, 1.0000000e+002</node>
			<node id="3">-5.0000000e+002,-5.0000000e+002, 2.0000000e+002</node>
			<node id="4">-5.0000000e+002,-5.0000000e+002, 3.0000000e+002</node>
			<node id="5">-5.0000000e+002,-4.0000000e+002, 0.0000000e+000</node>
			<node id="6">-5.0000000e+002,-4.0000000e+002, 1.0000000e+002</node>
			<node id="7">-5.0000000e+002,-4.0000000e+002, 2.0000000e+002</node>
			<node id="8">-5.0000000e+002,-4.0000000e+002, 3.0000000e+002</node>
			<node id="9">-5.0000000e+002,-3.0000000e+002, 0.0000000e+000</node>
			<node id="10">-5.0000000e+002,-3.0000000e+002, 1.0000000e+002</node>
			<node id="11">-5.0000000e+002,-3.0000000e+002, 2.0000000e+002</node>
			<node id="12">-5.0000000e+002,-3.0000000e+002, 3.0000000e+002</node>
			<node id="13">-5.0000000e+002,-2.0000000e+002, 0.0000000e+000</node>
			<node id="14">-5.0000000e+002,-2.0000000e+002, 1.0000000e+002</node>
			<node id="15">-5.0000000e+002,-2.0000000e+002, 2.0000000e+002</node>
			<node id="16">-5.0000000e+002,-2.0000000e+002, 3.0000000e+002</node>
			<node id="17">-5.0000000e+002,-1.0000000e+002, 0.0000000e+000</node>
			<node id="18">-5.0000000e+002,-1.0000000e+002, 1.0000000e+002</node>
			<node id="19">-5.0000000e+002,-1.0000000e+002, 2.0000000e+002</node>
			<node id="20">-5.0000000e+002,-1.0000000e+002, 3.0000000e+002</node>
<!-- ... 464 like lines cut -->
		</Nodes>
		<Elements type="hex8" mat="1" name="Part1">
			<elem id="1">     1,    45,    49,     5,     2,    46,    50,     6</elem>
			<elem id="2">     2,    46,    50,     6,     3,    47,    51,     7</elem>
			<elem id="3">     3,    47,    51,     7,     4,    48,    52,     8</elem>
			<elem id="4">     5,    49,    53,     9,     6,    50,    54,    10</elem>
			<elem id="5">     6,    50,    54,    10,     7,    51,    55,    11</elem>
			<elem id="6">     7,    51,    55,    11,     8,    52,    56,    12</elem>
			<elem id="7">     9,    53,    57,    13,    10,    54,    58,    14</elem>
			<elem id="8">    10,    54,    58,    14,    11,    55,    59,    15</elem>
			<elem id="9">    11,    55,    59,    15,    12,    56,    60,    16</elem>
			<elem id="10">    13,    57,    61,    17,    14,    58,    62,    18</elem>
			<elem id="11">    14,    58,    62,    18,    15,    59,    63,    19</elem>
			<elem id="12">    15,    59,    63,    19,    16,    60,    64,    20</elem>
			<elem id="13">    17,    61,    65,    21,    18,    62,    66,    22</elem>
			<elem id="14">    18,    62,    66,    22,    19,    63,    67,    23</elem>
			<elem id="15">    19,    63,    67,    23,    20,    64,    68,    24</elem>
			<elem id="16">    21,    65,    69,    25,    22,    66,    70,    26</elem>
			<elem id="17">    22,    66,    70,    26,    23,    67,    71,    27</elem>
			<elem id="18">    23,    67,    71,    27,    24,    68,    72,    28</elem>
			<elem id="19">    25,    69,    73,    29,    26,    70,    74,    30</elem>
			<elem id="20">    26,    70,    74,    30,    27,    71,    75,    31</elem>
<!-- ... 280 like lines cut -->
		</Elements>
		<NodeSet name="All_Nodes">
			<node id="1"/>
			<node id="2"/>
			<node id="3"/>
			<node id="4"/>
			<node id="5"/>
			<node id="6"/>
			<node id="7"/>
			<node id="8"/>
			<node id="9"/>
			<node id="10"/>
			<node id="11"/>
			<node id="12"/>
			<node id="13"/>
			<node id="14"/>
			<node id="15"/>
			<node id="16"/>
			<node id="17"/>
			<node id="18"/>
			<node id="19"/>
			<node id="20"/>
<!-- ... 464 like lines cut -->
		</NodeSet>
		<NodeSet name="All_Nodes">
			<node id="1"/>
			<node id="2"/>
			<node id="3"/>
			<node id="4"/>
			<node id="5"/>
			<node id="6"/>
			<node id="7"/>
			<node id="8"/>
			<node id="9"/>
			<node id="10"/>
			<node id="11"/>
			<node id="12"/>
			<node id="13"/>
			<node id="14"/>
			<node id="15"/>
			<node id="16"/>
			<node id="17"/>
			<node id="18"/>
			<node id="19"/>
			<node id="20"/>
<!-- ... 464 like lines cut -->
		</NodeSet>
		<NodeSet name="All_Nodes">
			<node id="1"/>
			<node id="2"/>
			<node id="3"/>
			<node id="4"/>
			<node id="5"/>
			<node id="6"/>
			<node id="7"/>
			<node id="8"/>
			<node id="9"/>
			<node id="10"/>
			<node id="11"/>
			<node id="12"/>
			<node id="13"/>
			<node id="14"/>
			<node id="15"/>
			<node id="16"/>
			<node id="17"/>
			<node id="18"/>
			<node id="19"/>
			<node id="20"/>
<!-- ... 464 like lines cut -->
		</NodeSet>
		<NodeSet name="PrescribedConcentration01">
			<node id="1"/>
			<node id="2"/>
			<node id="3"/>
			<node id="4"/>
			<node id="5"/>
			<node id="6"/>
			<node id="7"/>
			<node id="8"/>
			<node id="9"/>
			<node id="10"/>
			<node id="11"/>
			<node id="12"/>
			<node id="13"/>
			<node id="14"/>
			<node id="15"/>
			<node id="16"/>
			<node id="17"/>
			<node id="18"/>
			<node id="19"/>
			<node id="20"/>
<!-- ... 24 like lines cut -->
		</NodeSet>
		<NodeSet name="PrescribedConcentration02">
			<node id="45"/>
			<node id="46"/>
			<node id="47"/>
			<node id="48"/>
			<node id="49"/>
			<node id="50"/>
			<node id="51"/>
			<node id="52"/>
			<node id="53"/>
			<node id="54"/>
			<node id="55"/>
			<node id="56"/>
			<node id="57"/>
			<node id="58"/>
			<node id="59"/>
			<node id="60"/>
			<node id="61"/>
			<node id="62"/>
			<node id="63"/>
			<node id="64"/>
<!-- ... 24 like lines cut -->
		</NodeSet>
		<NodeSet name="PrescribedConcentration03">
			<node id="89"/>
			<node id="90"/>
			<node id="91"/>
			<node id="92"/>
			<node id="93"/>
			<node id="94"/>
			<node id="95"/>
			<node id="96"/>
			<node id="97"/>
			<node id="98"/>
			<node id="99"/>
			<node id="100"/>
			<node id="101"/>
			<node id="102"/>
			<node id="103"/>
			<node id="104"/>
			<node id="105"/>
			<node id="106"/>
			<node id="107"/>
			<node id="108"/>
<!-- ... 24 like lines cut -->
		</NodeSet>
		<NodeSet name="PrescribedConcentration04">
			<node id="133"/>
			<node id="134"/>
			<node id="135"/>
			<node id="136"/>
			<node id="137"/>
			<node id="138"/>
			<node id="139"/>
			<node id="140"/>
			<node id="141"/>
			<node id="142"/>
			<node id="143"/>
			<node id="144"/>
			<node id="145"/>
			<node id="146"/>
			<node id="147"/>
			<node id="148"/>
			<node id="149"/>
			<node id="150"/>
			<node id="151"/>
			<node id="152"/>
<!-- ... 24 like lines cut -->
		</NodeSet>
		<NodeSet name="PrescribedConcentration05">
			<node id="177"/>
			<node id="178"/>
			<node id="179"/>
			<node id="180"/>
			<node id="181"/>
			<node id="182"/>
			<node id="183"/>
			<node id="184"/>
			<node id="185"/>
			<node id="186"/>
			<node id="187"/>
			<node id="188"/>
			<node id="189"/>
			<node id="190"/>
			<node id="191"/>
			<node id="192"/>
			<node id="193"/>
			<node id="194"/>
			<node id="195"/>
			<node id="196"/>
<!-- ... 24 like lines cut -->
		</NodeSet>
		<NodeSet name="PrescribedConcentration06">
			<node id="221"/>
			<node id="222"/>
			<node id="223"/>
			<node id="224"/>
			<node id="225"/>
			<node id="226"/>
			<node id="227"/>
			<node id="228"/>
			<node id="229"/>
			<node id="230"/>
			<node id="231"/>
			<node id="232"/>
			<node id="233"/>
			<node id="234"/>
			<node id="235"/>
			<node id="236"/>
			<node id="237"/>
			<node id="238"/>
			<node id="239"/>
			<node id="240"/>
<!-- ... 24 like lines cut -->
		</NodeSet>
		<NodeSet name="PrescribedConcentration07">
			<node id="265"/>
			<node id="266"/>
			<node id="267"/>
			<node id="268"/>
			<node id="269"/>
			<node id="270"/>
			<node id="271"/>
			<node id="272"/>
			<node id="273"/>
			<node id="274"/>
			<node id="275"/>
			<node id="276"/>
			<node id="277"/>
			<node id="278"/>
			<node id="279"/>
			<node id="280"/>
			<node id="281"/>
			<node id="282"/>
			<node id="283"/>
			<node id="284"/>
<!-- ... 24 like lines cut -->
		</NodeSet>
		<NodeSet name="PrescribedConcentration08">
			<node id="309"/>
			<node id="310"/>
			<node id="311"/>
			<node id="312"/>
			<node id="313"/>
			<node id="314"/>
			<node id="315"/>
			<node id="316"/>
			<node id="317"/>
			<node id="318"/>
			<node id="319"/>
			<node id="320"/>
			<node id="321"/>
			<node id="322"/>
			<node id="323"/>
			<node id="324"/>
			<node id="325"/>
			<node id="326"/>
			<node id="327"/>
			<node id="328"/>
<!-- ... 24 like lines cut -->
		</NodeSet>
		<NodeSet name="PrescribedConcentration09">
			<node id="353"/>
			<node id="354"/>
			<node id="355"/>
			<node id="356"/>
			<node id="357"/>
			<node id="358"/>
			<node id="359"/>
			<node id="360"/>
			<node id="361"/>
			<node id="362"/>
			<node id="363"/>
			<node id="364"/>
			<node id="365"/>
			<node id="366"/>
			<node id="367"/>
			<node id="368"/>
			<node id="369"/>
			<node id="370"/>
			<node id="371"/>
			<node id="372"/>
<!-- ... 24 like lines cut -->
		</NodeSet>
		<NodeSet name="PrescribedConcentration10">
			<node id="397"/>
			<node id="398"/>
			<node id="399"/>
			<node id="400"/>
			<node id="401"/>
			<node id="402"/>
			<node id="403"/>
			<node id="404"/>
			<node id="405"/>
			<node id="406"/>
			<node id="407"/>
			<node id="408"/>
			<node id="409"/>
			<node id="410"/>
			<node id="411"/>
			<node id="412"/>
			<node id="413"/>
			<node id="414"/>
			<node id="415"/>
			<node id="416"/>
<!-- ... 24 like lines cut -->
		</NodeSet>
		<NodeSet name="PrescribedConcentration11">
			<node id="441"/>
			<node id="442"/>
			<node id="443"/>
			<node id="444"/>
			<node id="445"/>
			<node id="446"/>
			<node id="447"/>
			<node id="448"/>
			<node id="449"/>
			<node id="450"/>
			<node id="451"/>
			<node id="452"/>
			<node id="453"/>
			<node id="454"/>
			<node id="455"/>
			<node id="456"/>
			<node id="457"/>
			<node id="458"/>
			<node id="459"/>
			<node id="460"/>
<!-- ... 24 like lines cut -->
		</NodeSet>
		<NodeSet name="FixedDisplacement01">
			<node id="1"/>
			<node id="2"/>
			<node id="3"/>
			<node id="4"/>
			<node id="5"/>
			<node id="6"/>
			<node id="7"/>
			<node id="8"/>
			<node id="9"/>
			<node id="10"/>
			<node id="11"/>
			<node id="12"/>
			<node id="13"/>
			<node id="14"/>
			<node id="15"/>
			<node id="16"/>
			<node id="17"/>
			<node id="18"/>
			<node id="19"/>
			<node id="20"/>
<!-- ... 24 like lines cut -->
		</NodeSet>
		<NodeSet name="FixedDisplacement02">
			<node id="441"/>
			<node id="442"/>
			<node id="443"/>
			<node id="444"/>
			<node id="445"/>
			<node id="446"/>
			<node id="447"/>
			<node id="448"/>
			<node id="449"/>
			<node id="450"/>
			<node id="451"/>
			<node id="452"/>
			<node id="453"/>
			<node id="454"/>
			<node id="455"/>
			<node id="456"/>
			<node id="457"/>
			<node id="458"/>
			<node id="459"/>
			<node id="460"/>
<!-- ... 24 like lines cut -->
		</NodeSet>
		<NodeSet name="All_Nodes">
			<node id="1"/>
			<node id="2"/>
			<node id="3"/>
			<node id="4"/>
			<node id="5"/>
			<node id="6"/>
			<node id="7"/>
			<node id="8"/>
			<node id="9"/>
			<node id="10"/>
			<node id="11"/>
			<node id="12"/>
			<node id="13"/>
			<node id="14"/>
			<node id="15"/>
			<node id="16"/>
			<node id="17"/>
			<node id="18"/>
			<node id="19"/>
			<node id="20"/>
<!-- ... 464 like lines cut -->
		</NodeSet>
		<NodeSet name="All_Nodes">
			<node id="1"/>
			<node id="2"/>
			<node id="3"/>
			<node id="4"/>
			<node id="5"/>
			<node id="6"/>
			<node id="7"/>
			<node id="8"/>
			<node id="9"/>
			<node id="10"/>
			<node id="11"/>
			<node id="12"/>
			<node id="13"/>
			<node id="14"/>
			<node id="15"/>
			<node id="16"/>
			<node id="17"/>
			<node id="18"/>
			<node id="19"/>
			<node id="20"/>
<!-- ... 464 like lines cut -->
		</NodeSet>
		<NodeSet name="PrescribedConcentration01">
			<node id="1"/>
			<node id="2"/>
			<node id="3"/>
			<node id="4"/>
			<node id="5"/>
			<node id="6"/>
			<node id="7"/>
			<node id="8"/>
			<node id="9"/>
			<node id="10"/>
			<node id="11"/>
			<node id="12"/>
			<node id="13"/>
			<node id="14"/>
			<node id="15"/>
			<node id="16"/>
			<node id="17"/>
			<node id="18"/>
			<node id="19"/>
			<node id="20"/>
<!-- ... 24 like lines cut -->
		</NodeSet>
		<NodeSet name="PrescribedConcentration02">
			<node id="45"/>
			<node id="46"/>
			<node id="47"/>
			<node id="48"/>
			<node id="49"/>
			<node id="50"/>
			<node id="51"/>
			<node id="52"/>
			<node id="53"/>
			<node id="54"/>
			<node id="55"/>
			<node id="56"/>
			<node id="57"/>
			<node id="58"/>
			<node id="59"/>
			<node id="60"/>
			<node id="61"/>
			<node id="62"/>
			<node id="63"/>
			<node id="64"/>
<!-- ... 24 like lines cut -->
		</NodeSet>
		<NodeSet name="PrescribedConcentration03">
			<node id="89"/>
			<node id="90"/>
			<node id="91"/>
			<node id="92"/>
			<node id="93"/>
			<node id="94"/>
			<node id="95"/>
			<node id="96"/>
			<node id="97"/>
			<node id="98"/>
			<node id="99"/>
			<node id="100"/>
			<node id="101"/>
			<node id="102"/>
			<node id="103"/>
			<node id="104"/>
			<node id="105"/>
			<node id="106"/>
			<node id="107"/>
			<node id="108"/>
<!-- ... 24 like lines cut -->
		</NodeSet>
		<NodeSet name="PrescribedConcentration04">
			<node id="133"/>
			<node id="134"/>
			<node id="135"/>
			<node id="136"/>
			<node id="137"/>
			<node id="138"/>
			<node id="139"/>
			<node id="140"/>
			<node id="141"/>
			<node id="142"/>
			<node id="143"/>
			<node id="144"/>
			<node id="145"/>
			<node id="146"/>
			<node id="147"/>
			<node id="148"/>
			<node id="149"/>
			<node id="150"/>
			<node id="151"/>
			<node id="152"/>
<!-- ... 24 like lines cut -->
		</NodeSet>
		<NodeSet name="PrescribedConcentration05">
			<node id="177"/>
			<node id="178"/>
			<node id="179"/>
			<node id="180"/>
			<node id="181"/>
			<node id="182"/>
			<node id="183"/>
			<node id="184"/>
			<node id="185"/>
			<node id="186"/>
			<node id="187"/>
			<node id="188"/>
			<node id="189"/>
			<node id="190"/>
			<node id="191"/>
			<node id="192"/>
			<node id="193"/>
			<node id="194"/>
			<node id="195"/>
			<node id="196"/>
<!-- ... 24 like lines cut -->
		</NodeSet>
		<NodeSet name="PrescribedConcentration06">
			<node id="221"/>
			<node id="222"/>
			<node id="223"/>
			<node id="224"/>
			<node id="225"/>
			<node id="226"/>
			<node id="227"/>
			<node id="228"/>
			<node id="229"/>
			<node id="230"/>
			<node id="231"/>
			<node id="232"/>
			<node id="233"/>
			<node id="234"/>
			<node id="235"/>
			<node id="236"/>
			<node id="237"/>
			<node id="238"/>
			<node id="239"/>
			<node id="240"/>
<!-- ... 24 like lines cut -->
		</NodeSet>
		<NodeSet name="PrescribedConcentration07">
			<node id="265"/>
			<node id="266"/>
			<node id="267"/>
			<node id="268"/>
			<node id="269"/>
			<node id="270"/>
			<node id="271"/>
			<node id="272"/>
			<node id="273"/>
			<node id="274"/>
			<node id="275"/>
			<node id="276"/>
			<node id="277"/>
			<node id="278"/>
			<node id="279"/>
			<node id="280"/>
			<node id="281"/>
			<node id="282"/>
			<node id="283"/>
			<node id="284"/>
<!-- ... 24 like lines cut -->
		</NodeSet>
		<NodeSet name="PrescribedConcentration08">
			<node id="309"/>
			<node id="310"/>
			<node id="311"/>
			<node id="312"/>
			<node id="313"/>
			<node id="314"/>
			<node id="315"/>
			<node id="316"/>
			<node id="317"/>
			<node id="318"/>
			<node id="319"/>
			<node id="320"/>
			<node id="321"/>
			<node id="322"/>
			<node id="323"/>
			<node id="324"/>
			<node id="325"/>
			<node id="326"/>
			<node id="327"/>
			<node id="328"/>
<!-- ... 24 like lines cut -->
		</NodeSet>
		<NodeSet name="PrescribedConcentration09">
			<node id="353"/>
			<node id="354"/>
			<node id="355"/>
			<node id="356"/>
			<node id="357"/>
			<node id="358"/>
			<node id="359"/>
			<node id="360"/>
			<node id="361"/>
			<node id="362"/>
			<node id="363"/>
			<node id="364"/>
			<node id="365"/>
			<node id="366"/>
			<node id="367"/>
			<node id="368"/>
			<node id="369"/>
			<node id="370"/>
			<node id="371"/>
			<node id="372"/>
<!-- ... 24 like lines cut -->
		</NodeSet>
		<NodeSet name="PrescribedConcentration10">
			<node id="397"/>
			<node id="398"/>
			<node id="399"/>
			<node id="400"/>
			<node id="401"/>
			<node id="402"/>
			<node id="403"/>
			<node id="404"/>
			<node id="405"/>
			<node id="406"/>
			<node id="407"/>
			<node id="408"/>
			<node id="409"/>
			<node id="410"/>
			<node id="411"/>
			<node id="412"/>
			<node id="413"/>
			<node id="414"/>
			<node id="415"/>
			<node id="416"/>
<!-- ... 24 like lines cut -->
		</NodeSet>
		<NodeSet name="PrescribedConcentration11">
			<node id="441"/>
			<node id="442"/>
			<node id="443"/>
			<node id="444"/>
			<node id="445"/>
			<node id="446"/>
			<node id="447"/>
			<node id="448"/>
			<node id="449"/>
			<node id="450"/>
			<node id="451"/>
			<node id="452"/>
			<node id="453"/>
			<node id="454"/>
			<node id="455"/>
			<node id="456"/>
			<node id="457"/>
			<node id="458"/>
			<node id="459"/>
			<node id="460"/>
<!-- ... 24 like lines cut -->
		</NodeSet>
	</Geometry>
	<LoadData>
		<loadcurve id="1" type="smooth">
			<point>0,0</point>
			<point>1,1</point>
		</loadcurve>
		<loadcurve id="2" type="smooth">
			<point>0,0</point>
			<point>1,1</point>
		</loadcurve>
		<loadcurve id="3" type="smooth">
			<point>0,0</point>
			<point>1,1</point>
		</loadcurve>
		<loadcurve id="4" type="smooth">
			<point>0,0</point>
			<point>1,1</point>
		</loadcurve>
		<loadcurve id="5" type="smooth">
			<point>0,0</point>
			<point>1,1</point>
		</loadcurve>
		<loadcurve id="6" type="smooth">
			<point>0,0</point>
			<point>1,1</point>
		</loadcurve>
		<loadcurve id="7" type="smooth">
			<point>0,0</point>
			<point>1,1</point>
		</loadcurve>
		<loadcurve id="8" type="smooth">
			<point>0,0</point>
			<point>1,1</point>
		</loadcurve>
		<loadcurve id="9" type="smooth">
			<point>0,0</point>
			<point>1,1</point>
		</loadcurve>
		<loadcurve id="10" type="smooth">
			<point>0,0</point>
			<point>1,1</point>
		</loadcurve>
		<loadcurve id="11" type="smooth">
			<point>0,0</point>
			<point>1,1</point>
		</loadcurve>
		<loadcurve id="12" type="smooth">
			<point>0,0</point>
			<point>1,1</point>
		</loadcurve>
		<loadcurve id="13" type="smooth">
			<point>0,0</point>
			<point>1,1</point>
		</loadcurve>
		<loadcurve id="14" type="smooth">
			<point>0,0</point>
			<point>1,1</point>
		</loadcurve>
		<loadcurve id="15" type="smooth">
			<point>0,0</point>
			<point>1,1</point>
		</loadcurve>
		<loadcurve id="16" type="smooth">
			<point>0,0</point>
			<point>1,1</point>
		</loadcurve>
		<loadcurve id="17" type="smooth">
			<point>0,0</point>
			<point>1,1</point>
		</loadcurve>
		<loadcurve id="18" type="smooth">
			<point>0,0</point>
			<point>1,1</point>
		</loadcurve>
		<loadcurve id="19" type="smooth">
			<point>0,0</point>
			<point>1,1</point>
		</loadcurve>
		<loadcurve id="20" type="smooth">
			<point>0,0</point>
			<point>1,1</point>
		</loadcurve>
		<loadcurve id="21" type="smooth">
			<point>0,0</point>
			<point>1,1</point>
		</loadcurve>
		<loadcurve id="22" type="smooth">
			<point>0,0</point>
			<point>1,1</point>
		</loadcurve>
	</LoadData>
	<Output>
		<plotfile type="febio">
			<var type="displacement"/>
			<var type="fiber vector"/>
			<var type="stress"/>
			<var type="effective fluid pressure"/>
			<var type="fluid pressure"/>
			<var type="fluid flux"/>
			<var type="osmolarity"/>
			<var type="referential solid volume fraction"/>
			<var type="effective solute concentration"/>
			<var type="sbm referential apparent density"/>
			<var type="sbm concentration"/>
			<var type="solute concentration"/>
			<var type="solute flux"/>
		</plotfile>
	</Output>
	<Step name="Step02">
		<Control>
			<time_steps>1</time_steps>
			<step_size>0.025</step_size>
			<max_refs>100</max_refs>
			<max_ups>50</max_ups>
			<diverge_reform>1</diverge_reform>
			<reform_each_time_step>1</reform_each_time_step>
			<dtol>0.2</dtol>
			<etol>0.01</etol>
			<rtol>0.01</rtol>
			<ptol>0.01</ptol>
			<ctol>0.1</ctol>
			<lstol>0.9</lstol>
			<min_residual>1e-020</min_residual>
			<qnmethod>0</qnmethod>
			<analysis type="steady-state"/>
		</Control>
		<Boundary>
			<fix bc="x,y,z" node_set="All_Nodes"/>
			<fix bc="u,v,w" node_set="All_Nodes"/>
			<fix bc="p" node_set="All_Nodes"/>
			<prescribe bc="c1" node_set="PrescribedConcentration01">
				<scale lc="1">0</scale>
				<relative>0</relative>
			</prescribe>
			<prescribe bc="c1" node_set="PrescribedConcentration02">
				<scale lc="2">0</scale>
				<relative>0</relative>
			</prescribe>
			<prescribe bc="c1" node_set="PrescribedConcentration03">
				<scale lc="3">0</scale>
				<relative>0</relative>
			</prescribe>
			<prescribe bc="c1" node_set="PrescribedConcentration04">
				<scale lc="4">0.2</scale>
				<relative>0</relative>
			</prescribe>
			<prescribe bc="c1" node_set="PrescribedConcentration05">
				<scale lc="5">0.4</scale>
				<relative>0</relative>
			</prescribe>
			<prescribe bc="c1" node_set="PrescribedConcentration06">
				<scale lc="6">0.6</scale>
				<relative>0</relative>
			</prescribe>
			<prescribe bc="c1" node_set="PrescribedConcentration07">
				<scale lc="7">0.8</scale>
				<relative>0</relative>
			</prescribe>
			<prescribe bc="c1" node_set="PrescribedConcentration08">
				<scale lc="8">1</scale>
				<relative>0</relative>
			</prescribe>
			<prescribe bc="c1" node_set="PrescribedConcentration09">
				<scale lc="9">1.2</scale>
				<relative>0</relative>
			</prescribe>
			<prescribe bc="c1" node_set="PrescribedConcentration10">
				<scale lc="10">1.2</scale>
				<relative>0</relative>
			</prescribe>
			<prescribe bc="c1" node_set="PrescribedConcentration11">
				<scale lc="11">1.2</scale>
				<relative>0</relative>
			</prescribe>
		</Boundary>
	</Step>
	<Step name="Step03">
		<Control>
			<time_steps>150</time_steps>
			<step_size>0.025</step_size>
			<max_refs>100</max_refs>
			<max_ups>50</max_ups>
			<diverge_reform>1</diverge_reform>
			<reform_each_time_step>1</reform_each_time_step>
			<dtol>0.2</dtol>
			<etol>0.01</etol>
			<rtol>0.01</rtol>
			<ptol>0.01</ptol>
			<ctol>0.1</ctol>
			<lstol>0.9</lstol>
			<min_residual>1e-020</min_residual>
			<qnmethod>0</qnmethod>
		</Control>
		<Boundary>
			<fix bc="x,y,z" node_set="FixedDisplacement01"/>
			<fix bc="x,y,z" node_set="FixedDisplacement02"/>
			<fix bc="u,v,w" node_set="All_Nodes"/>
			<fix bc="p" node_set="All_Nodes"/>
			<prescribe bc="c1" node_set="PrescribedConcentration01">
				<scale lc="12">0</scale>
				<relative>0</relative>
			</prescribe>
			<prescribe bc="c1" node_set="PrescribedConcentration02">
				<scale lc="13">0</scale>
				<relative>0</relative>
			</prescribe>
			<prescribe bc="c1" node_set="PrescribedConcentration03">
				<scale lc="14">0</scale>
				<relative>0</relative>
			</prescribe>
			<prescribe bc="c1" node_set="PrescribedConcentration04">
				<scale lc="15">0.2</scale>
				<relative>0</relative>
			</prescribe>
			<prescribe bc="c1" node_set="PrescribedConcentration05">
				<scale lc="16">0.4</scale>
				<relative>0</relative>
			</prescribe>
			<prescribe bc="c1" node_set="PrescribedConcentration06">
				<scale lc="17">0.6</scale>
				<relative>0</relative>
			</prescribe>
			<prescribe bc="c1" node_set="PrescribedConcentration07">
				<scale lc="18">0.8</scale>
				<relative>0</relative>
			</prescribe>
			<prescribe bc="c1" node_set="PrescribedConcentration08">
				<scale lc="19">1</scale>
				<relative>0</relative>
			</prescribe>
			<prescribe bc="c1" node_set="PrescribedConcentration09">
				<scale lc="20">1.2</scale>
				<relative>0</relative>
			</prescribe>
			<prescribe bc="c1" node_set="PrescribedConcentration10">
				<scale lc="21">1.2</scale>
				<relative>0</relative>
			</prescribe>
			<prescribe bc="c1" node_set="PrescribedConcentration11">
				<scale lc="22">1.2</scale>
				<relative>0</relative>
			</prescribe>
		</Boundary>
	</Step>
</febio_spec>
