<?xml version="1.0" encoding="ISO-8859-1"?>
<febio_spec version="2.5">
	<Module type="solid"/>
	<Control>
		<time_steps>10</time_steps>
		<step_size>0.1</step_size>
		<max_refs>15</max_refs>
		<max_ups>10</max_ups>
		<diverge_reform>1</diverge_reform>
		<reform_each_time_step>1</reform_each_time_step>
		<dtol>0.001</dtol>
		<etol>0.01</etol>
		<rtol>0</rtol>
		<lstol>0.9</lstol>
		<min_residual>1e-020</min_residual>
		<qnmethod>0</qnmethod>
		<time_stepper>
			<dtmin>0.01</dtmin>
			<dtmax>0.1</dtmax>
			<max_retries>15</max_retries>
			<opt_iter>10</opt_iter>
		</time_stepper>
		<analysis type="static"/>
	</Control>
	<Globals>
		<Constants>
			<T>0</T>
			<R>0</R>
			<Fc>0</Fc>
		</Constants>
	</Globals>
	<Material>
		<material id="1" name="Material01" type="neo-Hookean">
			<density>1</density>
			<E>1</E>
			<v>0.4</v>
		</material>
		<material id="2" name="Material02" type="rigid body">
			<density>1</density>
		</material>
	</Material>
	<Geometry>
		<Nodes name="ri03">
			<node id="1">-3.5355338e-001,-3.5355338e-001, 0.0000000e+000</node>
			<node id="2">-3.5355338e-001,-2.3570226e-001, 0.0000000e+000</node>
			<node id="3">-3.5355338e-001,-1.1785113e-001, 0.0000000e+000</node>
			<node id="4">-3.5355338e-001, 0.0000000e+000, 0.0000000e+000</node>
			<node id="5">-3.5355338e-001, 1.1785113e-001, 0.0000000e+000</node>
			<node id="6">-3.5355338e-001, 2.3570226e-001, 0.0000000e+000</node>
			<node id="7">-3.5355338e-001, 3.5355338e-001, 0.0000000e+000</node>
			<node id="8">-2.3570226e-001,-3.5355338e-001, 0.0000000e+000</node>
			<node id="9">-2.3570226e-001,-2.3570226e-001, 0.0000000e+000</node>
			<node id="10">-2.3570226e-001,-1.1785113e-001, 0.0000000e+000</node>
			<node id="11">-2.3570226e-001, 0.0000000e+000, 0.0000000e+000</node>
			<node id="12">-2.3570226e-001, 1.1785113e-001, 0.0000000e+000</node>
			<node id="13">-2.3570226e-001, 2.3570226e-001, 0.0000000e+000</node>
			<node id="14">-2.3570226e-001, 3.5355338e-001, 0.0000000e+000</node>
			<node id="15">-1.1785113e-001,-3.5355338e-001, 0.0000000e+000</node>
			<node id="16">-1.1785113e-001,-2.3570226e-001, 0.0000000e+000</node>
			<node id="17">-1.1785113e-001,-1.1785113e-001, 0.0000000e+000</node>
			<node id="18">-1.1785113e-001, 0.0000000e+000, 0.0000000e+000</node>
			<node id="19">-1.1785113e-001, 1.1785113e-001, 0.0000000e+000</node>
			<node id="20">-1.1785113e-001, 2.3570226e-001, 0.0000000e+000</node>
<!-- ... 2103 like lines cut -->
		</Nodes>
		<Elements type="hex8" mat="1" name="Part18">
			<elem id="1">     1,     8,     9,     2,   194,   201,   202,   195</elem>
			<elem id="2">     2,     9,    10,     3,   195,   202,   203,   196</elem>
			<elem id="3">     3,    10,    11,     4,   196,   203,   204,   197</elem>
			<elem id="4">     4,    11,    12,     5,   197,   204,   205,   198</elem>
			<elem id="5">     5,    12,    13,     6,   198,   205,   206,   199</elem>
			<elem id="6">     6,    13,    14,     7,   199,   206,   207,   200</elem>
			<elem id="7">     8,    15,    16,     9,   201,   208,   209,   202</elem>
			<elem id="8">     9,    16,    17,    10,   202,   209,   210,   203</elem>
			<elem id="9">    10,    17,    18,    11,   203,   210,   211,   204</elem>
			<elem id="10">    11,    18,    19,    12,   204,   211,   212,   205</elem>
			<elem id="11">    12,    19,    20,    13,   205,   212,   213,   206</elem>
			<elem id="12">    13,    20,    21,    14,   206,   213,   214,   207</elem>
			<elem id="13">    15,    22,    23,    16,   208,   215,   216,   209</elem>
			<elem id="14">    16,    23,    24,    17,   209,   216,   217,   210</elem>
			<elem id="15">    17,    24,    25,    18,   210,   217,   218,   211</elem>
			<elem id="16">    18,    25,    26,    19,   211,   218,   219,   212</elem>
			<elem id="17">    19,    26,    27,    20,   212,   219,   220,   213</elem>
			<elem id="18">    20,    27,    28,    21,   213,   220,   221,   214</elem>
			<elem id="19">    22,    29,    30,    23,   215,   222,   223,   216</elem>
			<elem id="20">    23,    30,    31,    24,   216,   223,   224,   217</elem>
<!-- ... 1420 like lines cut -->
		</Elements>
		<Elements type="hex8" mat="2" name="Part19">
			<elem id="1441">  1545,  1552,  1553,  1546,  1738,  1745,  1746,  1739</elem>
			<elem id="1442">  1546,  1553,  1554,  1547,  1739,  1746,  1747,  1740</elem>
			<elem id="1443">  1547,  1554,  1555,  1548,  1740,  1747,  1748,  1741</elem>
			<elem id="1444">  1548,  1555,  1556,  1549,  1741,  1748,  1749,  1742</elem>
			<elem id="1445">  1549,  1556,  1557,  1550,  1742,  1749,  1750,  1743</elem>
			<elem id="1446">  1550,  1557,  1558,  1551,  1743,  1750,  1751,  1744</elem>
			<elem id="1447">  1552,  1559,  1560,  1553,  1745,  1752,  1753,  1746</elem>
			<elem id="1448">  1553,  1560,  1561,  1554,  1746,  1753,  1754,  1747</elem>
			<elem id="1449">  1554,  1561,  1562,  1555,  1747,  1754,  1755,  1748</elem>
			<elem id="1450">  1555,  1562,  1563,  1556,  1748,  1755,  1756,  1749</elem>
			<elem id="1451">  1556,  1563,  1564,  1557,  1749,  1756,  1757,  1750</elem>
			<elem id="1452">  1557,  1564,  1565,  1558,  1750,  1757,  1758,  1751</elem>
			<elem id="1453">  1559,  1566,  1567,  1560,  1752,  1759,  1760,  1753</elem>
			<elem id="1454">  1560,  1567,  1568,  1561,  1753,  1760,  1761,  1754</elem>
			<elem id="1455">  1561,  1568,  1569,  1562,  1754,  1761,  1762,  1755</elem>
			<elem id="1456">  1562,  1569,  1570,  1563,  1755,  1762,  1763,  1756</elem>
			<elem id="1457">  1563,  1570,  1571,  1564,  1756,  1763,  1764,  1757</elem>
			<elem id="1458">  1564,  1571,  1572,  1565,  1757,  1764,  1765,  1758</elem>
			<elem id="1459">  1566,  1573,  1574,  1567,  1759,  1766,  1767,  1760</elem>
			<elem id="1460">  1567,  1574,  1575,  1568,  1760,  1767,  1768,  1761</elem>
<!-- ... 340 like lines cut -->
		</Elements>
		<NodeSet name="FixedDisplacement01">
			<node id="1"/>
			<node id="2"/>
			<node id="3"/>
			<node id="4"/>
			<node id="5"/>
			<node id="6"/>
			<node id="7"/>
			<node id="8"/>
			<node id="9"/>
			<node id="10"/>
			<node id="11"/>
			<node id="12"/>
			<node id="13"/>
			<node id="14"/>
			<node id="15"/>
			<node id="16"/>
			<node id="17"/>
			<node id="18"/>
			<node id="19"/>
			<node id="20"/>
<!-- ... 173 like lines cut -->
		</NodeSet>
		<NodeSet name="FixedDisplacement02">
			<node id="1"/>
			<node id="2"/>
			<node id="3"/>
			<node id="4"/>
			<node id="5"/>
			<node id="6"/>
			<node id="7"/>
			<node id="8"/>
			<node id="9"/>
			<node id="10"/>
			<node id="11"/>
			<node id="12"/>
			<node id="13"/>
			<node id="14"/>
			<node id="15"/>
			<node id="16"/>
			<node id="17"/>
			<node id="18"/>
			<node id="19"/>
			<node id="20"/>
<!-- ... 173 like lines cut -->
		</NodeSet>
		<NodeSet name="FixedDisplacement03">
			<node id="1"/>
			<node id="2"/>
			<node id="3"/>
			<node id="4"/>
			<node id="5"/>
			<node id="6"/>
			<node id="7"/>
			<node id="8"/>
			<node id="9"/>
			<node id="10"/>
			<node id="11"/>
			<node id="12"/>
			<node id="13"/>
			<node id="14"/>
			<node id="15"/>
			<node id="16"/>
			<node id="17"/>
			<node id="18"/>
			<node id="19"/>
			<node id="20"/>
<!-- ... 173 like lines cut -->
		</NodeSet>
		<ElementSet name="unnamed_set01">
			<elem id="144"/>
		</ElementSet>
	</Geometry>
	<Boundary>
		<fix bc="z" node_set="FixedDisplacement01"/>
		<fix bc="y" node_set="FixedDisplacement02"/>
		<fix bc="x" node_set="FixedDisplacement03"/>
		<rigid_body mat="2">
			<fixed bc="Ry"/>
			<fixed bc="Rz"/>
		</rigid_body>
		<rigid_body mat="2">
			<prescribed bc="z" lc="1">1</prescribed>
		</rigid_body>
		<rigid_body mat="2">
			<prescribed bc="Rx" lc="2">1</prescribed>
		</rigid_body>
	</Boundary>
	<LoadData>
		<loadcurve id="1" type="linear">
			<point>0,0</point>
			<point>1,1</point>
		</loadcurve>
		<loadcurve id="2" type="linear">
			<point>0,0</point>
			<point>1,1</point>
		</loadcurve>
	</LoadData>
	<Output>
		<plotfile type="febio"/>
		<logfile>
			<element_data data="sx" elem_set="unnamed_set01"/>
		</logfile>
	</Output>
</febio_spec>
