<?xml version="1.0" encoding="ISO-8859-1"?>
<febio_spec version="2.5">
	<Module type="solid"/>
	<Control>
		<time_steps>10</time_steps>
		<step_size>0.1</step_size>
		<max_refs>15</max_refs>
		<max_ups>10</max_ups>
		<diverge_reform>1</diverge_reform>
		<reform_each_time_step>1</reform_each_time_step>
		<dtol>0.001</dtol>
		<etol>0.01</etol>
		<rtol>0</rtol>
		<lstol>0.9</lstol>
		<min_residual>1e-020</min_residual>
		<qnmethod>0</qnmethod>
		<time_stepper>
			<dtmin>0.01</dtmin>
			<dtmax>0.1</dtmax>
			<max_retries>15</max_retries>
			<opt_iter>10</opt_iter>
		</time_stepper>
		<analysis type="static"/>
	</Control>
	<Globals>
		<Constants>
			<T>0</T>
			<R>0</R>
			<Fc>0</Fc>
		</Constants>
	</Globals>
	<Material>
		<material id="1" name="deformable" type="neo-Hookean">
			<density>1</density>
			<E>1</E>
			<v>0</v>
		</material>
		<material id="2" name="rigid 1" type="rigid body">
			<density>1</density>
		</material>
		<material id="3" name="rigid2" type="rigid body">
			<density>1</density>
		</material>
	</Material>
	<Geometry>
		<Nodes name="ri05">
			<node id="1">-5.0000000e-001,-1.0000000e-001, 0.0000000e+000</node>
			<node id="2">-5.0000000e-001,-1.0000000e-001, 1.0000000e+000</node>
			<node id="3">-5.0000000e-001, 1.0000000e-001, 0.0000000e+000</node>
			<node id="4">-5.0000000e-001, 1.0000000e-001, 1.0000000e+000</node>
			<node id="5"> 5.0000000e-001,-1.0000000e-001, 0.0000000e+000</node>
			<node id="6"> 5.0000000e-001,-1.0000000e-001, 1.0000000e+000</node>
			<node id="7"> 5.0000000e-001, 1.0000000e-001, 0.0000000e+000</node>
			<node id="8"> 5.0000000e-001, 1.0000000e-001, 1.0000000e+000</node>
			<node id="9">-5.0000000e-001, 1.0000000e-001, 0.0000000e+000</node>
			<node id="10">-5.0000000e-001, 1.0000000e-001, 1.0000000e+000</node>
			<node id="11">-5.0000000e-001, 3.0000001e-001, 0.0000000e+000</node>
			<node id="12">-5.0000000e-001, 3.0000001e-001, 1.0000000e+000</node>
			<node id="13"> 5.0000000e-001, 1.0000000e-001, 0.0000000e+000</node>
			<node id="14"> 5.0000000e-001, 1.0000000e-001, 1.0000000e+000</node>
			<node id="15"> 5.0000000e-001, 3.0000001e-001, 0.0000000e+000</node>
			<node id="16"> 5.0000000e-001, 3.0000001e-001, 1.0000000e+000</node>
			<node id="17"> 5.0000000e-001, 1.0000000e-001, 8.0000001e-001</node>
			<node id="18"> 5.0000000e-001, 1.0000000e-001, 1.0000000e+000</node>
			<node id="19"> 5.0000000e-001, 3.0000001e-001, 8.0000001e-001</node>
			<node id="20"> 5.0000000e-001, 3.0000001e-001, 1.0000000e+000</node>
<!-- ... 44 like lines cut -->
		</Nodes>
		<Elements type="hex8" mat="1" name="Part25">
			<elem id="1">    17,    21,    23,    19,    18,    22,    24,    20</elem>
			<elem id="2">    21,    25,    27,    23,    22,    26,    28,    24</elem>
			<elem id="3">    25,    29,    31,    27,    26,    30,    32,    28</elem>
			<elem id="4">    29,    33,    35,    31,    30,    34,    36,    32</elem>
			<elem id="5">    33,    37,    39,    35,    34,    38,    40,    36</elem>
			<elem id="6">    41,    45,    47,    43,    42,    46,    48,    44</elem>
			<elem id="7">    45,    49,    51,    47,    46,    50,    52,    48</elem>
			<elem id="8">    49,    53,    55,    51,    50,    54,    56,    52</elem>
			<elem id="9">    53,    57,    59,    55,    54,    58,    60,    56</elem>
			<elem id="10">    57,    61,    63,    59,    58,    62,    64,    60</elem>
		</Elements>
		<Elements type="hex8" mat="2" name="Part26">
			<elem id="11">     1,     5,     7,     3,     2,     6,     8,     4</elem>
		</Elements>
		<Elements type="hex8" mat="3" name="Part27">
			<elem id="12">     9,    13,    15,    11,    10,    14,    16,    12</elem>
		</Elements>
		<NodeSet name="FixedDisplacement01">
			<node id="37"/>
			<node id="38"/>
			<node id="39"/>
			<node id="40"/>
			<node id="41"/>
			<node id="42"/>
			<node id="43"/>
			<node id="44"/>
		</NodeSet>
		<NodeSet name="FixedDisplacement02">
			<node id="41"/>
			<node id="42"/>
			<node id="43"/>
			<node id="44"/>
		</NodeSet>
		<NodeSet name="FixedDisplacement03">
			<node id="41"/>
			<node id="42"/>
			<node id="43"/>
			<node id="44"/>
		</NodeSet>
		<NodeSet name="PrescribedBC199">
			<node id="37"/>
			<node id="38"/>
			<node id="39"/>
			<node id="40"/>
		</NodeSet>
		<NodeSet name="RigidNodeset 1">
			<node id="17"/>
			<node id="18"/>
			<node id="19"/>
			<node id="20"/>
		</NodeSet>
		<NodeSet name="RigidNodeset 2">
			<node id="61"/>
			<node id="62"/>
			<node id="63"/>
			<node id="64"/>
		</NodeSet>
		<ElementSet name="unnamed_set01">
			<elem id="6"/>
		</ElementSet>
	</Geometry>
	<Boundary>
		<fix bc="z" node_set="FixedDisplacement01"/>
		<fix bc="y" node_set="FixedDisplacement02"/>
		<fix bc="x" node_set="FixedDisplacement03"/>
		<prescribe bc="x" node_set="PrescribedBC199">
			<scale lc="1">1</scale>
			<relative>0</relative>
		</prescribe>
		<rigid name="RigidInterface03" rb="3" node_set="RigidNodeset 1"/>
		<rigid name="RigidInterface02" rb="2" node_set="RigidNodeset 2"/>
		<rigid_body mat="2">
			<fixed bc="y"/>
			<fixed bc="z"/>
			<fixed bc="Rx"/>
			<fixed bc="Rz"/>
		</rigid_body>
		<rigid_body mat="3">
			<fixed bc="y"/>
			<fixed bc="z"/>
			<fixed bc="Rx"/>
			<fixed bc="Rz"/>
		</rigid_body>
	</Boundary>
	<Contact>
	</Contact>
	<Constraints>
		<constraint type="rigid joint" name="RigidJoint01">
			<tolerance>0.01</tolerance>
			<penalty>1000</penalty>
			<body_a>2</body_a>
			<body_b>3</body_b>
			<joint>0,0.1,0.5</joint>
		</constraint>
	</Constraints>
	<LoadData>
		<loadcurve id="1" type="linear">
			<point>0,0</point>
			<point>1,1</point>
		</loadcurve>
	</LoadData>
	<Output>
		<plotfile type="febio"/>
		<logfile>
			<element_data data="sx" elem_set="unnamed_set01"/>
		</logfile>
	</Output>
</febio_spec>
