<?xml version="1.0" encoding="ISO-8859-1"?>
<febio_spec version="2.5">
	<Module type="solid"/>
	<Control>
		<time_steps>100</time_steps>
		<step_size>0.01</step_size>
		<max_refs>15</max_refs>
		<max_ups>10</max_ups>
		<diverge_reform>1</diverge_reform>
		<reform_each_time_step>1</reform_each_time_step>
		<dtol>0.001</dtol>
		<etol>0.01</etol>
		<rtol>0</rtol>
		<lstol>0.9</lstol>
		<min_residual>1e-020</min_residual>
		<qnmethod>0</qnmethod>
		<time_stepper>
			<dtmin>0.01</dtmin>
			<dtmax>0.1</dtmax>
			<max_retries>5</max_retries>
			<opt_iter>10</opt_iter>
		</time_stepper>
		<analysis type="static"/>
	</Control>
	<Globals>
		<Constants>
			<T>0</T>
			<R>0</R>
			<Fc>0</Fc>
		</Constants>
	</Globals>
	<Material>
		<material id="1" name="Material 1" type="neo-Hookean">
			<density>1</density>
			<E>1</E>
			<v>0</v>
		</material>
	</Material>
	<Geometry>
		<Nodes name="sh04">
			<node id="1">-5.0000000e-001,-5.0000000e-001, 0.0000000e+000</node>
			<node id="2">-5.0000000e-001,-4.0000000e-001, 0.0000000e+000</node>
			<node id="3">-5.0000000e-001,-3.0000000e-001, 0.0000000e+000</node>
			<node id="4">-5.0000000e-001,-2.0000000e-001, 0.0000000e+000</node>
			<node id="5">-5.0000000e-001,-1.0000000e-001, 0.0000000e+000</node>
			<node id="6">-5.0000000e-001, 0.0000000e+000, 0.0000000e+000</node>
			<node id="7">-5.0000000e-001, 1.0000000e-001, 0.0000000e+000</node>
			<node id="8">-5.0000000e-001, 2.0000000e-001, 0.0000000e+000</node>
			<node id="9">-5.0000000e-001, 3.0000000e-001, 0.0000000e+000</node>
			<node id="10">-5.0000000e-001, 4.0000000e-001, 0.0000000e+000</node>
			<node id="11">-5.0000000e-001, 5.0000000e-001, 0.0000000e+000</node>
			<node id="12">-4.0000000e-001,-5.0000000e-001, 0.0000000e+000</node>
			<node id="13">-4.0000000e-001,-4.0000000e-001, 0.0000000e+000</node>
			<node id="14">-4.0000000e-001,-3.0000000e-001, 0.0000000e+000</node>
			<node id="15">-4.0000000e-001,-2.0000000e-001, 0.0000000e+000</node>
			<node id="16">-4.0000000e-001,-1.0000000e-001, 0.0000000e+000</node>
			<node id="17">-4.0000000e-001, 0.0000000e+000, 0.0000000e+000</node>
			<node id="18">-4.0000000e-001, 1.0000000e-001, 0.0000000e+000</node>
			<node id="19">-4.0000000e-001, 2.0000000e-001, 0.0000000e+000</node>
			<node id="20">-4.0000000e-001, 3.0000000e-001, 0.0000000e+000</node>
<!-- ... 101 like lines cut -->
		</Nodes>
		<Elements type="quad4" mat="1" name="Part40">
			<elem id="1">     1,    12,    13,     2</elem>
			<elem id="2">     2,    13,    14,     3</elem>
			<elem id="3">     3,    14,    15,     4</elem>
			<elem id="4">     4,    15,    16,     5</elem>
			<elem id="5">     5,    16,    17,     6</elem>
			<elem id="6">     6,    17,    18,     7</elem>
			<elem id="7">     7,    18,    19,     8</elem>
			<elem id="8">     8,    19,    20,     9</elem>
			<elem id="9">     9,    20,    21,    10</elem>
			<elem id="10">    10,    21,    22,    11</elem>
			<elem id="11">    12,    23,    24,    13</elem>
			<elem id="12">    13,    24,    25,    14</elem>
			<elem id="13">    14,    25,    26,    15</elem>
			<elem id="14">    15,    26,    27,    16</elem>
			<elem id="15">    16,    27,    28,    17</elem>
			<elem id="16">    17,    28,    29,    18</elem>
			<elem id="17">    18,    29,    30,    19</elem>
			<elem id="18">    19,    30,    31,    20</elem>
			<elem id="19">    20,    31,    32,    21</elem>
			<elem id="20">    21,    32,    33,    22</elem>
<!-- ... 80 like lines cut -->
		</Elements>
		<NodeSet name="FixedShellDisplacement01">
			<node id="1"/>
			<node id="2"/>
			<node id="3"/>
			<node id="4"/>
			<node id="5"/>
			<node id="6"/>
			<node id="7"/>
			<node id="8"/>
			<node id="9"/>
			<node id="10"/>
			<node id="11"/>
			<node id="22"/>
			<node id="33"/>
			<node id="44"/>
			<node id="55"/>
			<node id="66"/>
			<node id="77"/>
			<node id="88"/>
			<node id="99"/>
			<node id="110"/>
			<node id="121"/>
		</NodeSet>
		<NodeSet name="FixedShellDisplacement02">
			<node id="1"/>
			<node id="2"/>
			<node id="3"/>
			<node id="4"/>
			<node id="5"/>
			<node id="6"/>
			<node id="7"/>
			<node id="8"/>
			<node id="9"/>
			<node id="10"/>
			<node id="11"/>
			<node id="22"/>
			<node id="33"/>
			<node id="44"/>
			<node id="55"/>
			<node id="66"/>
			<node id="77"/>
			<node id="88"/>
			<node id="99"/>
			<node id="110"/>
			<node id="121"/>
		</NodeSet>
		<NodeSet name="FixedShellDisplacement03">
			<node id="1"/>
			<node id="2"/>
			<node id="3"/>
			<node id="4"/>
			<node id="5"/>
			<node id="6"/>
			<node id="7"/>
			<node id="8"/>
			<node id="9"/>
			<node id="10"/>
			<node id="11"/>
			<node id="22"/>
			<node id="33"/>
			<node id="44"/>
			<node id="55"/>
			<node id="66"/>
			<node id="77"/>
			<node id="88"/>
			<node id="99"/>
			<node id="110"/>
			<node id="121"/>
		</NodeSet>
		<NodeSet name="FixedDisplacement01">
			<node id="1"/>
			<node id="2"/>
			<node id="3"/>
			<node id="4"/>
			<node id="5"/>
			<node id="6"/>
			<node id="7"/>
			<node id="8"/>
			<node id="9"/>
			<node id="10"/>
			<node id="11"/>
			<node id="22"/>
			<node id="33"/>
			<node id="44"/>
			<node id="55"/>
			<node id="66"/>
			<node id="77"/>
			<node id="88"/>
			<node id="99"/>
			<node id="110"/>
			<node id="121"/>
		</NodeSet>
		<NodeSet name="FixedDisplacement02">
			<node id="1"/>
			<node id="2"/>
			<node id="3"/>
			<node id="4"/>
			<node id="5"/>
			<node id="6"/>
			<node id="7"/>
			<node id="8"/>
			<node id="9"/>
			<node id="10"/>
			<node id="11"/>
			<node id="22"/>
			<node id="33"/>
			<node id="44"/>
			<node id="55"/>
			<node id="66"/>
			<node id="77"/>
			<node id="88"/>
			<node id="99"/>
			<node id="110"/>
			<node id="121"/>
		</NodeSet>
		<NodeSet name="FixedDisplacement03">
			<node id="1"/>
			<node id="2"/>
			<node id="3"/>
			<node id="4"/>
			<node id="5"/>
			<node id="6"/>
			<node id="7"/>
			<node id="8"/>
			<node id="9"/>
			<node id="10"/>
			<node id="11"/>
			<node id="22"/>
			<node id="33"/>
			<node id="44"/>
			<node id="55"/>
			<node id="66"/>
			<node id="77"/>
			<node id="88"/>
			<node id="99"/>
			<node id="110"/>
			<node id="121"/>
		</NodeSet>
		<NodeSet name="ForceNodeset19">
			<node id="111"/>
		</NodeSet>
		<ElementSet name="unnamed_set01">
			<elem id="12"/>
		</ElementSet>
	</Geometry>
	<MeshData>
		<ElementData var="shell thickness" elem_set="Part40">
			<elem lid="1">0.01,0.01,0.01,0.01</elem>
			<elem lid="2">0.01,0.01,0.01,0.01</elem>
			<elem lid="3">0.01,0.01,0.01,0.01</elem>
			<elem lid="4">0.01,0.01,0.01,0.01</elem>
			<elem lid="5">0.01,0.01,0.01,0.01</elem>
			<elem lid="6">0.01,0.01,0.01,0.01</elem>
			<elem lid="7">0.01,0.01,0.01,0.01</elem>
			<elem lid="8">0.01,0.01,0.01,0.01</elem>
			<elem lid="9">0.01,0.01,0.01,0.01</elem>
			<elem lid="10">0.01,0.01,0.01,0.01</elem>
			<elem lid="11">0.01,0.01,0.01,0.01</elem>
			<elem lid="12">0.01,0.01,0.01,0.01</elem>
			<elem lid="13">0.01,0.01,0.01,0.01</elem>
			<elem lid="14">0.01,0.01,0.01,0.01</elem>
			<elem lid="15">0.01,0.01,0.01,0.01</elem>
			<elem lid="16">0.01,0.01,0.01,0.01</elem>
			<elem lid="17">0.01,0.01,0.01,0.01</elem>
			<elem lid="18">0.01,0.01,0.01,0.01</elem>
			<elem lid="19">0.01,0.01,0.01,0.01</elem>
			<elem lid="20">0.01,0.01,0.01,0.01</elem>
<!-- ... 80 like lines cut -->
		</ElementData>
	</MeshData>
	<Boundary>
		<fix bc="sz" node_set="FixedShellDisplacement01"/>
		<fix bc="sy" node_set="FixedShellDisplacement02"/>
		<fix bc="sx" node_set="FixedShellDisplacement03"/>
		<fix bc="z" node_set="FixedDisplacement01"/>
		<fix bc="y" node_set="FixedDisplacement02"/>
		<fix bc="x" node_set="FixedDisplacement03"/>
	</Boundary>
	<Loads>
		<nodal_load bc="z" node_set="ForceNodeset19">
			<scale lc="1">1</scale>
		</nodal_load>
	</Loads>
	<LoadData>
		<loadcurve id="1" type="linear">
			<point>0,0</point>
			<point>1,0.0005</point>
		</loadcurve>
	</LoadData>
	<Output>
		<plotfile type="febio"/>
		<logfile>
			<element_data data="sx" elem_set="unnamed_set01"/>
		</logfile>
	</Output>
</febio_spec>
