<?xml version="1.0" encoding="ISO-8859-1"?>
<febio_spec version="2.5">
	<Module type="solid"/>
	<Control>
		<time_steps>10</time_steps>
		<step_size>0.1</step_size>
		<max_refs>15</max_refs>
		<max_ups>10</max_ups>
		<diverge_reform>1</diverge_reform>
		<reform_each_time_step>1</reform_each_time_step>
		<dtol>0.001</dtol>
		<etol>0.01</etol>
		<rtol>0</rtol>
		<lstol>0.9</lstol>
		<min_residual>1e-020</min_residual>
		<qnmethod>0</qnmethod>
		<time_stepper>
			<dtmin>0.01</dtmin>
			<dtmax>0.1</dtmax>
			<max_retries>5</max_retries>
			<opt_iter>10</opt_iter>
		</time_stepper>
		<analysis type="static"/>
	</Control>
	<Globals>
		<Constants>
			<T>0</T>
			<R>0</R>
			<Fc>0</Fc>
		</Constants>
	</Globals>
	<Material>
		<material id="1" name="Material 3" type="neo-Hookean">
			<density>1</density>
			<E>10</E>
			<v>0.45</v>
		</material>
	</Material>
	<Geometry>
		<Nodes name="sh06">
			<node id="1"> 0.0000000e+000, 0.0000000e+000, 0.0000000e+000</node>
			<node id="2"> 0.0000000e+000, 1.1466437e-001, 0.0000000e+000</node>
			<node id="3"> 0.0000000e+000, 2.3591883e-001, 0.0000000e+000</node>
			<node id="4"> 0.0000000e+000, 3.4785349e-001, 0.0000000e+000</node>
			<node id="5"> 1.1466437e-001, 0.0000000e+000, 0.0000000e+000</node>
			<node id="6"> 1.1667262e-001, 1.1667262e-001, 0.0000000e+000</node>
			<node id="7"> 1.1796353e-001, 2.3592706e-001, 0.0000000e+000</node>
			<node id="8"> 1.1512514e-001, 3.4537541e-001, 0.0000000e+000</node>
			<node id="9"> 2.3591883e-001, 0.0000000e+000, 0.0000000e+000</node>
			<node id="10"> 2.3592706e-001, 1.1796353e-001, 0.0000000e+000</node>
			<node id="11"> 2.3334524e-001, 2.3334524e-001, 0.0000000e+000</node>
			<node id="12"> 2.2431403e-001, 3.3647104e-001, 0.0000000e+000</node>
			<node id="13"> 3.4785349e-001, 0.0000000e+000, 0.0000000e+000</node>
			<node id="14"> 3.4537541e-001, 1.1512514e-001, 0.0000000e+000</node>
			<node id="15"> 3.3647104e-001, 2.2431403e-001, 0.0000000e+000</node>
			<node id="16"> 3.1819805e-001, 3.1819805e-001, 0.0000000e+000</node>
			<node id="17"> 4.5654457e-001, 0.0000000e+000, 0.0000000e+000</node>
			<node id="18"> 4.4592672e-001, 1.4864224e-001, 0.0000000e+000</node>
			<node id="19"> 4.1906758e-001, 2.7937839e-001, 0.0000000e+000</node>
			<node id="20"> 3.8301617e-001, 3.8301617e-001, 0.0000000e+000</node>
<!-- ... 38 like lines cut -->
		</Nodes>
		<Elements type="quad4" mat="1" name="Part42">
			<elem id="1">     1,     5,     6,     2</elem>
			<elem id="2">     5,     9,    10,     6</elem>
			<elem id="3">     9,    13,    14,    10</elem>
			<elem id="4">     2,     6,     7,     3</elem>
			<elem id="5">     6,    10,    11,     7</elem>
			<elem id="6">    10,    14,    15,    11</elem>
			<elem id="7">     3,     7,     8,     4</elem>
			<elem id="8">     7,    11,    12,     8</elem>
			<elem id="9">    11,    15,    16,    12</elem>
			<elem id="10">    13,    17,    18,    14</elem>
			<elem id="11">    14,    18,    19,    15</elem>
			<elem id="12">    15,    19,    20,    16</elem>
			<elem id="13">    16,    20,    21,    12</elem>
			<elem id="14">    12,    21,    22,     8</elem>
			<elem id="15">     8,    22,    23,     4</elem>
			<elem id="16">    17,    24,    25,    18</elem>
			<elem id="17">    18,    25,    26,    19</elem>
			<elem id="18">    19,    26,    27,    20</elem>
			<elem id="19">    20,    27,    28,    21</elem>
			<elem id="20">    21,    28,    29,    22</elem>
<!-- ... 25 like lines cut -->
		</Elements>
		<NodeSet name="FixedShellDisplacement01">
			<node id="1"/>
			<node id="5"/>
			<node id="9"/>
			<node id="13"/>
			<node id="17"/>
			<node id="24"/>
			<node id="31"/>
			<node id="38"/>
			<node id="45"/>
			<node id="52"/>
		</NodeSet>
		<NodeSet name="FixedShellDisplacement02">
			<node id="1"/>
			<node id="2"/>
			<node id="3"/>
			<node id="4"/>
			<node id="23"/>
			<node id="30"/>
			<node id="37"/>
			<node id="44"/>
			<node id="51"/>
			<node id="58"/>
		</NodeSet>
		<NodeSet name="FixedDisplacement01">
			<node id="1"/>
			<node id="5"/>
			<node id="9"/>
			<node id="13"/>
			<node id="17"/>
			<node id="24"/>
			<node id="31"/>
			<node id="38"/>
			<node id="45"/>
			<node id="52"/>
		</NodeSet>
		<NodeSet name="FixedDisplacement02">
			<node id="1"/>
			<node id="2"/>
			<node id="3"/>
			<node id="4"/>
			<node id="23"/>
			<node id="30"/>
			<node id="37"/>
			<node id="44"/>
			<node id="51"/>
			<node id="58"/>
		</NodeSet>
		<NodeSet name="FixedDisplacement03">
			<node id="52"/>
			<node id="53"/>
			<node id="54"/>
			<node id="55"/>
			<node id="56"/>
			<node id="57"/>
			<node id="58"/>
		</NodeSet>
		<Surface name="surface01">
			<quad4 id="1">     1,     5,     6,     2</quad4>
			<quad4 id="2">     5,     9,    10,     6</quad4>
			<quad4 id="3">     9,    13,    14,    10</quad4>
			<quad4 id="4">     2,     6,     7,     3</quad4>
			<quad4 id="5">     6,    10,    11,     7</quad4>
			<quad4 id="6">    10,    14,    15,    11</quad4>
			<quad4 id="7">     3,     7,     8,     4</quad4>
			<quad4 id="8">     7,    11,    12,     8</quad4>
			<quad4 id="9">    11,    15,    16,    12</quad4>
			<quad4 id="10">    13,    17,    18,    14</quad4>
			<quad4 id="11">    14,    18,    19,    15</quad4>
			<quad4 id="12">    15,    19,    20,    16</quad4>
			<quad4 id="13">    16,    20,    21,    12</quad4>
			<quad4 id="14">    12,    21,    22,     8</quad4>
			<quad4 id="15">     8,    22,    23,     4</quad4>
			<quad4 id="16">    17,    24,    25,    18</quad4>
			<quad4 id="17">    18,    25,    26,    19</quad4>
			<quad4 id="18">    19,    26,    27,    20</quad4>
			<quad4 id="19">    20,    27,    28,    21</quad4>
			<quad4 id="20">    21,    28,    29,    22</quad4>
<!-- ... 25 like lines cut -->
		</Surface>
		<ElementSet name="unnamed_set01">
			<elem id="5"/>
		</ElementSet>
	</Geometry>
	<MeshData>
		<ElementData var="shell thickness" elem_set="Part42">
			<elem lid="1">0.01,0.01,0.01,0.01</elem>
			<elem lid="2">0.01,0.01,0.01,0.01</elem>
			<elem lid="3">0.01,0.01,0.01,0.01</elem>
			<elem lid="4">0.01,0.01,0.01,0.01</elem>
			<elem lid="5">0.01,0.01,0.01,0.01</elem>
			<elem lid="6">0.01,0.01,0.01,0.01</elem>
			<elem lid="7">0.01,0.01,0.01,0.01</elem>
			<elem lid="8">0.01,0.01,0.01,0.01</elem>
			<elem lid="9">0.01,0.01,0.01,0.01</elem>
			<elem lid="10">0.01,0.01,0.01,0.01</elem>
			<elem lid="11">0.01,0.01,0.01,0.01</elem>
			<elem lid="12">0.01,0.01,0.01,0.01</elem>
			<elem lid="13">0.01,0.01,0.01,0.01</elem>
			<elem lid="14">0.01,0.01,0.01,0.01</elem>
			<elem lid="15">0.01,0.01,0.01,0.01</elem>
			<elem lid="16">0.01,0.01,0.01,0.01</elem>
			<elem lid="17">0.01,0.01,0.01,0.01</elem>
			<elem lid="18">0.01,0.01,0.01,0.01</elem>
			<elem lid="19">0.01,0.01,0.01,0.01</elem>
			<elem lid="20">0.01,0.01,0.01,0.01</elem>
<!-- ... 25 like lines cut -->
		</ElementData>
	</MeshData>
	<Boundary>
		<fix bc="sy" node_set="FixedShellDisplacement01"/>
		<fix bc="sx" node_set="FixedShellDisplacement02"/>
		<fix bc="y" node_set="FixedDisplacement01"/>
		<fix bc="x" node_set="FixedDisplacement02"/>
		<fix bc="z" node_set="FixedDisplacement03"/>
	</Boundary>
	<Loads>
		<surface_load type="pressure" surface="surface01">
			<pressure lc="1">1</pressure>
			<linear>0</linear>
		</surface_load>
	</Loads>
	<LoadData>
		<loadcurve id="1" type="linear">
			<point>0,0</point>
			<point>1,-0.008</point>
		</loadcurve>
	</LoadData>
	<Output>
		<plotfile type="febio"/>
		<logfile>
			<element_data data="sx" elem_set="unnamed_set01"/>
		</logfile>
	</Output>
</febio_spec>
