<?xml version="1.0" encoding="ISO-8859-1"?>
<febio_spec version="2.5">
	<Module type="solid"/>
	<Control>
		<time_steps>10</time_steps>
		<step_size>0.1</step_size>
		<max_refs>15</max_refs>
		<max_ups>0</max_ups>
		<diverge_reform>1</diverge_reform>
		<reform_each_time_step>1</reform_each_time_step>
		<dtol>0.001</dtol>
		<etol>0.01</etol>
		<rtol>0</rtol>
		<lstol>0.9</lstol>
		<min_residual>1e-020</min_residual>
		<qnmethod>0</qnmethod>
		<time_stepper>
			<dtmin>0.01</dtmin>
			<dtmax>0.1</dtmax>
			<max_retries>5</max_retries>
			<opt_iter>10</opt_iter>
		</time_stepper>
		<analysis type="static"/>
	</Control>
	<Globals>
		<Constants>
			<T>0</T>
			<R>0</R>
			<Fc>0</Fc>
		</Constants>
	</Globals>
	<Material>
		<material id="1" name="St-Venant Kirchhoff" type="isotropic elastic">
			<density>1</density>
			<E>1e+007</E>
			<v>0.25</v>
		</material>
	</Material>
	<Geometry>
		<Nodes name="sh12">
			<node id="1">-1.0000000e+000,-5.0000000e-001, 0.0000000e+000</node>
			<node id="2">-1.0000000e+000,-3.7500000e-001, 0.0000000e+000</node>
			<node id="3">-1.0000000e+000,-2.5000000e-001, 0.0000000e+000</node>
			<node id="4">-1.0000000e+000,-1.2500000e-001, 0.0000000e+000</node>
			<node id="5">-1.0000000e+000, 0.0000000e+000, 0.0000000e+000</node>
			<node id="6">-1.0000000e+000, 1.2500000e-001, 0.0000000e+000</node>
			<node id="7">-1.0000000e+000, 2.5000000e-001, 0.0000000e+000</node>
			<node id="8">-1.0000000e+000, 3.7500000e-001, 0.0000000e+000</node>
			<node id="9">-1.0000000e+000, 5.0000000e-001, 0.0000000e+000</node>
			<node id="10">-8.7500000e-001,-5.0000000e-001, 0.0000000e+000</node>
			<node id="11">-8.7500000e-001,-2.5000000e-001, 0.0000000e+000</node>
			<node id="12">-8.7500000e-001, 0.0000000e+000, 0.0000000e+000</node>
			<node id="13">-8.7500000e-001, 2.5000000e-001, 0.0000000e+000</node>
			<node id="14">-8.7500000e-001, 5.0000000e-001, 0.0000000e+000</node>
			<node id="15">-7.5000000e-001,-5.0000000e-001, 0.0000000e+000</node>
			<node id="16">-7.5000000e-001,-3.7500000e-001, 0.0000000e+000</node>
			<node id="17">-7.5000000e-001,-2.5000000e-001, 0.0000000e+000</node>
			<node id="18">-7.5000000e-001,-1.2500000e-001, 0.0000000e+000</node>
			<node id="19">-7.5000000e-001, 0.0000000e+000, 0.0000000e+000</node>
			<node id="20">-7.5000000e-001, 1.2500000e-001, 0.0000000e+000</node>
<!-- ... 101 like lines cut -->
		</Nodes>
		<Elements type="quad8" mat="1" name="Part2">
			<elem id="1">     1,    15,    17,     3,    10,    16,    11,     2</elem>
			<elem id="2">     3,    17,    19,     5,    11,    18,    12,     4</elem>
			<elem id="3">     5,    19,    21,     7,    12,    20,    13,     6</elem>
			<elem id="4">     7,    21,    23,     9,    13,    22,    14,     8</elem>
			<elem id="5">    15,    29,    31,    17,    24,    30,    25,    16</elem>
			<elem id="6">    17,    31,    33,    19,    25,    32,    26,    18</elem>
			<elem id="7">    19,    33,    35,    21,    26,    34,    27,    20</elem>
			<elem id="8">    21,    35,    37,    23,    27,    36,    28,    22</elem>
			<elem id="9">    29,    43,    45,    31,    38,    44,    39,    30</elem>
			<elem id="10">    31,    45,    47,    33,    39,    46,    40,    32</elem>
			<elem id="11">    33,    47,    49,    35,    40,    48,    41,    34</elem>
			<elem id="12">    35,    49,    51,    37,    41,    50,    42,    36</elem>
			<elem id="13">    43,    57,    59,    45,    52,    58,    53,    44</elem>
			<elem id="14">    45,    59,    61,    47,    53,    60,    54,    46</elem>
			<elem id="15">    47,    61,    63,    49,    54,    62,    55,    48</elem>
			<elem id="16">    49,    63,    65,    51,    55,    64,    56,    50</elem>
			<elem id="17">    57,    71,    73,    59,    66,    72,    67,    58</elem>
			<elem id="18">    59,    73,    75,    61,    67,    74,    68,    60</elem>
			<elem id="19">    61,    75,    77,    63,    68,    76,    69,    62</elem>
			<elem id="20">    63,    77,    79,    65,    69,    78,    70,    64</elem>
<!-- ... 12 like lines cut -->
		</Elements>
		<NodeSet name="unnamed_set02">
			<node id="121"/>
			<node id="113"/>
		</NodeSet>
		<NodeSet name="FixedDisplacement01">
			<node id="1"/>
			<node id="2"/>
			<node id="3"/>
			<node id="4"/>
			<node id="5"/>
			<node id="6"/>
			<node id="7"/>
			<node id="8"/>
			<node id="9"/>
		</NodeSet>
		<NodeSet name="FixedShellDisplacement01">
			<node id="1"/>
			<node id="2"/>
			<node id="3"/>
			<node id="4"/>
			<node id="5"/>
			<node id="6"/>
			<node id="7"/>
			<node id="8"/>
			<node id="9"/>
		</NodeSet>
		<NodeSet name="ForceNodeset22">
			<node id="121"/>
		</NodeSet>
		<NodeSet name="ForceNodeset23">
			<node id="113"/>
		</NodeSet>
		<NodeSet name="unnamed_set02">
			<node id="121"/>
			<node id="113"/>
		</NodeSet>
		<ElementSet name="unnamed_set01">
			<elem id="31"/>
		</ElementSet>
	</Geometry>
	<MeshData>
		<ElementData var="shell thickness" elem_set="Part2">
			<elem lid="1">0.05,0.05,0.05,0.05,0.05,0.05,0.05,0.05</elem>
			<elem lid="2">0.05,0.05,0.05,0.05,0.05,0.05,0.05,0.05</elem>
			<elem lid="3">0.05,0.05,0.05,0.05,0.05,0.05,0.05,0.05</elem>
			<elem lid="4">0.05,0.05,0.05,0.05,0.05,0.05,0.05,0.05</elem>
			<elem lid="5">0.05,0.05,0.05,0.05,0.05,0.05,0.05,0.05</elem>
			<elem lid="6">0.05,0.05,0.05,0.05,0.05,0.05,0.05,0.05</elem>
			<elem lid="7">0.05,0.05,0.05,0.05,0.05,0.05,0.05,0.05</elem>
			<elem lid="8">0.05,0.05,0.05,0.05,0.05,0.05,0.05,0.05</elem>
			<elem lid="9">0.05,0.05,0.05,0.05,0.05,0.05,0.05,0.05</elem>
			<elem lid="10">0.05,0.05,0.05,0.05,0.05,0.05,0.05,0.05</elem>
			<elem lid="11">0.05,0.05,0.05,0.05,0.05,0.05,0.05,0.05</elem>
			<elem lid="12">0.05,0.05,0.05,0.05,0.05,0.05,0.05,0.05</elem>
			<elem lid="13">0.05,0.05,0.05,0.05,0.05,0.05,0.05,0.05</elem>
			<elem lid="14">0.05,0.05,0.05,0.05,0.05,0.05,0.05,0.05</elem>
			<elem lid="15">0.05,0.05,0.05,0.05,0.05,0.05,0.05,0.05</elem>
			<elem lid="16">0.05,0.05,0.05,0.05,0.05,0.05,0.05,0.05</elem>
			<elem lid="17">0.05,0.05,0.05,0.05,0.05,0.05,0.05,0.05</elem>
			<elem lid="18">0.05,0.05,0.05,0.05,0.05,0.05,0.05,0.05</elem>
			<elem lid="19">0.05,0.05,0.05,0.05,0.05,0.05,0.05,0.05</elem>
			<elem lid="20">0.05,0.05,0.05,0.05,0.05,0.05,0.05,0.05</elem>
<!-- ... 12 like lines cut -->
		</ElementData>
	</MeshData>
	<Boundary>
		<fix bc="x,y,z" node_set="FixedDisplacement01"/>
		<fix bc="sx,sy,sz" node_set="FixedShellDisplacement01"/>
	</Boundary>
	<Loads>
		<nodal_load bc="z" node_set="ForceNodeset22">
			<scale lc="1">1</scale>
		</nodal_load>
		<nodal_load bc="z" node_set="ForceNodeset23">
			<scale lc="2">-1</scale>
		</nodal_load>
	</Loads>
	<LoadData>
		<loadcurve id="1" type="smooth">
			<point>0,0</point>
			<point>1,1</point>
		</loadcurve>
		<loadcurve id="2" type="smooth">
			<point>0,0</point>
			<point>1,1</point>
		</loadcurve>
	</LoadData>
	<Output>
		<plotfile type="febio">
			<var type="displacement"/>
			<var type="reaction forces"/>
			<var type="shell director"/>
			<var type="shell strain"/>
			<var type="shell thickness"/>
			<var type="stress"/>
		</plotfile>
		<logfile>
			<element_data data="sy" elem_set="unnamed_set01"/>
			<node_data data="uz" node_set="unnamed_set02"/>
		</logfile>
	</Output>
</febio_spec>
