<?xml version="1.0" encoding="ISO-8859-1"?>
<febio_spec version="2.5">
	<Module type="solid"/>
	<Control>
		<time_steps>10</time_steps>
		<step_size>0.1</step_size>
		<max_refs>15</max_refs>
		<max_ups>0</max_ups>
		<diverge_reform>1</diverge_reform>
		<reform_each_time_step>1</reform_each_time_step>
		<dtol>0.001</dtol>
		<etol>0.01</etol>
		<rtol>0</rtol>
		<lstol>0.9</lstol>
		<min_residual>1e-020</min_residual>
		<qnmethod>0</qnmethod>
		<time_stepper>
			<dtmin>0.01</dtmin>
			<dtmax>0.1</dtmax>
			<max_retries>5</max_retries>
			<opt_iter>10</opt_iter>
		</time_stepper>
		<analysis type="static"/>
	</Control>
	<Globals>
		<Constants>
			<T>0</T>
			<R>0</R>
			<Fc>0</Fc>
		</Constants>
	</Globals>
	<Material>
		<material id="1" name="St-Venant Kirchhoff" type="isotropic elastic">
			<density>1</density>
			<E>1e+007</E>
			<v>0.25</v>
		</material>
	</Material>
	<Geometry>
		<Nodes name="sh14">
			<node id="1">-1.0000000e+000,-5.0000000e-001, 0.0000000e+000</node>
			<node id="2">-1.0000000e+000,-2.5000000e-001, 0.0000000e+000</node>
			<node id="3">-1.0000000e+000, 0.0000000e+000, 0.0000000e+000</node>
			<node id="4">-1.0000000e+000, 2.5000000e-001, 0.0000000e+000</node>
			<node id="5">-1.0000000e+000, 5.0000000e-001, 0.0000000e+000</node>
			<node id="6">-7.5000000e-001,-5.0000000e-001, 0.0000000e+000</node>
			<node id="7">-7.5000000e-001,-2.5000000e-001, 0.0000000e+000</node>
			<node id="8">-7.5000000e-001, 0.0000000e+000, 0.0000000e+000</node>
			<node id="9">-7.5000000e-001, 2.5000000e-001, 0.0000000e+000</node>
			<node id="10">-7.5000000e-001, 5.0000000e-001, 0.0000000e+000</node>
			<node id="11">-5.0000000e-001,-5.0000000e-001, 0.0000000e+000</node>
			<node id="12">-5.0000000e-001,-2.5000000e-001, 0.0000000e+000</node>
			<node id="13">-5.0000000e-001, 0.0000000e+000, 0.0000000e+000</node>
			<node id="14">-5.0000000e-001, 2.5000000e-001, 0.0000000e+000</node>
			<node id="15">-5.0000000e-001, 5.0000000e-001, 0.0000000e+000</node>
			<node id="16">-2.5000000e-001,-5.0000000e-001, 0.0000000e+000</node>
			<node id="17">-2.5000000e-001,-2.5000000e-001, 0.0000000e+000</node>
			<node id="18">-2.5000000e-001, 0.0000000e+000, 0.0000000e+000</node>
			<node id="19">-2.5000000e-001, 2.5000000e-001, 0.0000000e+000</node>
			<node id="20">-2.5000000e-001, 5.0000000e-001, 0.0000000e+000</node>
<!-- ... 133 like lines cut -->
		</Nodes>
		<Elements type="tri6" mat="1" name="Part2">
			<elem id="1">     1,     6,     7,    47,    59,    46</elem>
			<elem id="2">     1,     7,     2,    46,    49,    48</elem>
			<elem id="3">     2,     7,     8,    49,    62,    50</elem>
			<elem id="4">     2,     8,     3,    50,    52,    51</elem>
			<elem id="5">     3,     8,     9,    52,    65,    53</elem>
			<elem id="6">     3,     9,     4,    53,    55,    54</elem>
			<elem id="7">     4,     9,    10,    55,    68,    56</elem>
			<elem id="8">     4,    10,     5,    56,    58,    57</elem>
			<elem id="9">     6,    11,    12,    60,    72,    61</elem>
			<elem id="10">     6,    12,     7,    61,    63,    59</elem>
			<elem id="11">     7,    12,    13,    63,    75,    64</elem>
			<elem id="12">     7,    13,     8,    64,    66,    62</elem>
			<elem id="13">     8,    13,    14,    66,    78,    67</elem>
			<elem id="14">     8,    14,     9,    67,    69,    65</elem>
			<elem id="15">     9,    14,    15,    69,    81,    70</elem>
			<elem id="16">     9,    15,    10,    70,    71,    68</elem>
			<elem id="17">    11,    16,    17,    74,    85,    73</elem>
			<elem id="18">    11,    17,    12,    73,    76,    72</elem>
			<elem id="19">    12,    17,    18,    76,    88,    77</elem>
			<elem id="20">    12,    18,    13,    77,    79,    75</elem>
<!-- ... 44 like lines cut -->
		</Elements>
		<NodeSet name="FixedDisplacement01">
			<node id="1"/>
			<node id="2"/>
			<node id="3"/>
			<node id="4"/>
			<node id="5"/>
			<node id="48"/>
			<node id="51"/>
			<node id="54"/>
			<node id="57"/>
		</NodeSet>
		<NodeSet name="FixedShellDisplacement01">
			<node id="1"/>
			<node id="2"/>
			<node id="3"/>
			<node id="4"/>
			<node id="5"/>
			<node id="48"/>
			<node id="51"/>
			<node id="54"/>
			<node id="57"/>
		</NodeSet>
		<NodeSet name="ForceNodeset25">
			<node id="45"/>
		</NodeSet>
		<NodeSet name="ForceNodeset26">
			<node id="41"/>
		</NodeSet>
		<ElementSet name="unnamed_set01">
			<elem id="1"/>
		</ElementSet>
	</Geometry>
	<MeshData>
		<ElementData var="shell thickness" elem_set="Part2">
			<elem lid="1">0.05,0.05,0.05,0.05,0.05,0.05</elem>
			<elem lid="2">0.05,0.05,0.05,0.05,0.05,0.05</elem>
			<elem lid="3">0.05,0.05,0.05,0.05,0.05,0.05</elem>
			<elem lid="4">0.05,0.05,0.05,0.05,0.05,0.05</elem>
			<elem lid="5">0.05,0.05,0.05,0.05,0.05,0.05</elem>
			<elem lid="6">0.05,0.05,0.05,0.05,0.05,0.05</elem>
			<elem lid="7">0.05,0.05,0.05,0.05,0.05,0.05</elem>
			<elem lid="8">0.05,0.05,0.05,0.05,0.05,0.05</elem>
			<elem lid="9">0.05,0.05,0.05,0.05,0.05,0.05</elem>
			<elem lid="10">0.05,0.05,0.05,0.05,0.05,0.05</elem>
			<elem lid="11">0.05,0.05,0.05,0.05,0.05,0.05</elem>
			<elem lid="12">0.05,0.05,0.05,0.05,0.05,0.05</elem>
			<elem lid="13">0.05,0.05,0.05,0.05,0.05,0.05</elem>
			<elem lid="14">0.05,0.05,0.05,0.05,0.05,0.05</elem>
			<elem lid="15">0.05,0.05,0.05,0.05,0.05,0.05</elem>
			<elem lid="16">0.05,0.05,0.05,0.05,0.05,0.05</elem>
			<elem lid="17">0.05,0.05,0.05,0.05,0.05,0.05</elem>
			<elem lid="18">0.05,0.05,0.05,0.05,0.05,0.05</elem>
			<elem lid="19">0.05,0.05,0.05,0.05,0.05,0.05</elem>
			<elem lid="20">0.05,0.05,0.05,0.05,0.05,0.05</elem>
<!-- ... 44 like lines cut -->
		</ElementData>
	</MeshData>
	<Boundary>
		<fix bc="x,y,z" node_set="FixedDisplacement01"/>
		<fix bc="sx,sy,sz" node_set="FixedShellDisplacement01"/>
	</Boundary>
	<Loads>
		<nodal_load bc="z" node_set="ForceNodeset25">
			<scale lc="1">1</scale>
		</nodal_load>
		<nodal_load bc="z" node_set="ForceNodeset26">
			<scale lc="2">-1</scale>
		</nodal_load>
	</Loads>
	<LoadData>
		<loadcurve id="1" type="smooth">
			<point>0,0</point>
			<point>1,1</point>
		</loadcurve>
		<loadcurve id="2" type="smooth">
			<point>0,0</point>
			<point>1,1</point>
		</loadcurve>
	</LoadData>
	<Output>
		<plotfile type="febio">
			<var type="displacement"/>
			<var type="reaction forces"/>
			<var type="shell director"/>
			<var type="shell strain"/>
			<var type="shell thickness"/>
			<var type="stress"/>
		</plotfile>
		<logfile>
			<element_data data="sx" elem_set="unnamed_set01"/>
		</logfile>
	</Output>
</febio_spec>
