<?xml version="1.0" encoding="ISO-8859-1"?>
<febio_spec version="2.5">
	<Module type="solid"/>
	<Control>
		<time_steps>10</time_steps>
		<step_size>0.1</step_size>
		<max_refs>15</max_refs>
		<max_ups>0</max_ups>
		<diverge_reform>1</diverge_reform>
		<reform_each_time_step>1</reform_each_time_step>
		<dtol>0.001</dtol>
		<etol>0.01</etol>
		<rtol>0</rtol>
		<lstol>0.9</lstol>
		<min_residual>1e-020</min_residual>
		<qnmethod>0</qnmethod>
		<time_stepper>
			<dtmin>0.01</dtmin>
			<dtmax>0.1</dtmax>
			<max_retries>5</max_retries>
			<opt_iter>10</opt_iter>
		</time_stepper>
		<analysis type="static"/>
	</Control>
	<Globals>
		<Constants>
			<T>0</T>
			<R>0</R>
			<Fc>0</Fc>
		</Constants>
	</Globals>
	<Material>
		<material id="1" name="Material 1" type="neo-Hookean">
			<density>1</density>
			<E>1</E>
			<v>0</v>
		</material>
		<material id="2" name="Material 2" type="rigid body">
			<density>1</density>
		</material>
	</Material>
	<Geometry>
		<Nodes name="sh16">
			<node id="1">-2.5000000e+000,-5.0000000e-001, 0.0000000e+000</node>
			<node id="2">-2.5000000e+000,-2.5000000e-001, 0.0000000e+000</node>
			<node id="3">-2.5000000e+000, 0.0000000e+000, 0.0000000e+000</node>
			<node id="4">-2.5000000e+000, 2.5000000e-001, 0.0000000e+000</node>
			<node id="5">-2.5000000e+000, 5.0000000e-001, 0.0000000e+000</node>
			<node id="6">-2.2500000e+000,-5.0000000e-001, 0.0000000e+000</node>
			<node id="7">-2.2500000e+000,-2.5000000e-001, 0.0000000e+000</node>
			<node id="8">-2.2500000e+000, 0.0000000e+000, 0.0000000e+000</node>
			<node id="9">-2.2500000e+000, 2.5000000e-001, 0.0000000e+000</node>
			<node id="10">-2.2500000e+000, 5.0000000e-001, 0.0000000e+000</node>
			<node id="11">-2.0000000e+000,-5.0000000e-001, 0.0000000e+000</node>
			<node id="12">-2.0000000e+000,-2.5000000e-001, 0.0000000e+000</node>
			<node id="13">-2.0000000e+000, 0.0000000e+000, 0.0000000e+000</node>
			<node id="14">-2.0000000e+000, 2.5000000e-001, 0.0000000e+000</node>
			<node id="15">-2.0000000e+000, 5.0000000e-001, 0.0000000e+000</node>
			<node id="16">-1.7500000e+000,-5.0000000e-001, 0.0000000e+000</node>
			<node id="17">-1.7500000e+000,-2.5000000e-001, 0.0000000e+000</node>
			<node id="18">-1.7500000e+000, 0.0000000e+000, 0.0000000e+000</node>
			<node id="19">-1.7500000e+000, 2.5000000e-001, 0.0000000e+000</node>
			<node id="20">-1.7500000e+000, 5.0000000e-001, 0.0000000e+000</node>
<!-- ... 93 like lines cut -->
		</Nodes>
		<Elements type="quad4" mat="1" name="Part45">
			<elem id="1">     1,     6,     7,     2</elem>
			<elem id="2">     2,     7,     8,     3</elem>
			<elem id="3">     3,     8,     9,     4</elem>
			<elem id="4">     4,     9,    10,     5</elem>
			<elem id="5">     6,    11,    12,     7</elem>
			<elem id="6">     7,    12,    13,     8</elem>
			<elem id="7">     8,    13,    14,     9</elem>
			<elem id="8">     9,    14,    15,    10</elem>
			<elem id="9">    11,    16,    17,    12</elem>
			<elem id="10">    12,    17,    18,    13</elem>
			<elem id="11">    13,    18,    19,    14</elem>
			<elem id="12">    14,    19,    20,    15</elem>
			<elem id="13">    16,    21,    22,    17</elem>
			<elem id="14">    17,    22,    23,    18</elem>
			<elem id="15">    18,    23,    24,    19</elem>
			<elem id="16">    19,    24,    25,    20</elem>
			<elem id="17">    21,    26,    27,    22</elem>
			<elem id="18">    22,    27,    28,    23</elem>
			<elem id="19">    23,    28,    29,    24</elem>
			<elem id="20">    24,    29,    30,    25</elem>
<!-- ... 60 like lines cut -->
		</Elements>
		<Elements type="hex8" mat="2" name="Part46">
			<elem id="81">   106,   110,   112,   108,   107,   111,   113,   109</elem>
		</Elements>
		<NodeSet name="FixedDisplacement01">
			<node id="1"/>
			<node id="2"/>
			<node id="3"/>
			<node id="4"/>
			<node id="5"/>
		</NodeSet>
		<NodeSet name="FixedDisplacement02">
			<node id="1"/>
			<node id="2"/>
			<node id="3"/>
			<node id="4"/>
			<node id="5"/>
		</NodeSet>
		<NodeSet name="FixedDisplacement03">
			<node id="1"/>
			<node id="2"/>
			<node id="3"/>
			<node id="4"/>
			<node id="5"/>
		</NodeSet>
		<NodeSet name="RigidNodeset 1">
			<node id="101"/>
			<node id="102"/>
			<node id="103"/>
			<node id="104"/>
			<node id="105"/>
		</NodeSet>
		<ElementSet name="unnamed_set01">
			<elem id="39"/>
		</ElementSet>
	</Geometry>
	<MeshData>
		<ElementData var="shell thickness" elem_set="Part45">
			<elem lid="1">0.01,0.01,0.01,0.01</elem>
			<elem lid="2">0.01,0.01,0.01,0.01</elem>
			<elem lid="3">0.01,0.01,0.01,0.01</elem>
			<elem lid="4">0.01,0.01,0.01,0.01</elem>
			<elem lid="5">0.01,0.01,0.01,0.01</elem>
			<elem lid="6">0.01,0.01,0.01,0.01</elem>
			<elem lid="7">0.01,0.01,0.01,0.01</elem>
			<elem lid="8">0.01,0.01,0.01,0.01</elem>
			<elem lid="9">0.01,0.01,0.01,0.01</elem>
			<elem lid="10">0.01,0.01,0.01,0.01</elem>
			<elem lid="11">0.01,0.01,0.01,0.01</elem>
			<elem lid="12">0.01,0.01,0.01,0.01</elem>
			<elem lid="13">0.01,0.01,0.01,0.01</elem>
			<elem lid="14">0.01,0.01,0.01,0.01</elem>
			<elem lid="15">0.01,0.01,0.01,0.01</elem>
			<elem lid="16">0.01,0.01,0.01,0.01</elem>
			<elem lid="17">0.01,0.01,0.01,0.01</elem>
			<elem lid="18">0.01,0.01,0.01,0.01</elem>
			<elem lid="19">0.01,0.01,0.01,0.01</elem>
			<elem lid="20">0.01,0.01,0.01,0.01</elem>
<!-- ... 60 like lines cut -->
		</ElementData>
	</MeshData>
	<Boundary>
		<fix bc="z" node_set="FixedDisplacement01"/>
		<fix bc="y" node_set="FixedDisplacement02"/>
		<fix bc="x" node_set="FixedDisplacement03"/>
		<rigid name="RigidInterface02" rb="2" node_set="RigidNodeset 1"/>
		<rigid_body mat="2">
			<fixed bc="y"/>
			<fixed bc="z"/>
			<fixed bc="Rx"/>
			<fixed bc="Rz"/>
		</rigid_body>
		<rigid_body mat="2">
			<prescribed bc="Ry" lc="1">1</prescribed>
		</rigid_body>
	</Boundary>
	<Contact>
	</Contact>
	<LoadData>
		<loadcurve id="1" type="linear">
			<point>0,0</point>
			<point>1,1</point>
		</loadcurve>
	</LoadData>
	<Output>
		<plotfile type="febio">
			<var type="displacement"/>
			<var type="shell director"/>
			<var type="shell thickness"/>
			<var type="stress"/>
		</plotfile>
		<logfile>
			<element_data data="z" elem_set="unnamed_set01"/>
		</logfile>
	</Output>
</febio_spec>
