<?xml version="1.0" encoding="ISO-8859-1"?>
<febio_spec version="2.5">
	<Module type="solid"/>
	<Control>
		<time_steps>40</time_steps>
		<step_size>0.1</step_size>
		<max_refs>15</max_refs>
		<max_ups>0</max_ups>
		<diverge_reform>1</diverge_reform>
		<reform_each_time_step>1</reform_each_time_step>
		<dtol>0.001</dtol>
		<etol>0.01</etol>
		<rtol>0</rtol>
		<lstol>0.9</lstol>
		<min_residual>1e-020</min_residual>
		<qnmethod>0</qnmethod>
		<time_stepper>
			<dtmin>0.01</dtmin>
			<dtmax>0.1</dtmax>
			<max_retries>5</max_retries>
			<opt_iter>10</opt_iter>
		</time_stepper>
		<analysis type="static"/>
		<symmetric_stiffness>0</symmetric_stiffness>
	</Control>
	<Globals>
		<Constants>
			<T>293</T>
			<R>0.008314</R>
			<Fc>0.0965</Fc>
		</Constants>
	</Globals>
	<Material>
		<material id="1" name="mat1" type="neo-Hookean">
			<density>1</density>
			<E>1</E>
			<v>0</v>
		</material>
		<material id="2" name="mat1" type="neo-Hookean">
			<density>1</density>
			<E>100</E>
			<v>0</v>
		</material>
		<material id="3" name="mat1" type="neo-Hookean">
			<density>1</density>
			<E>100</E>
			<v>0</v>
		</material>
		<material id="4" name="mat1" type="neo-Hookean">
			<density>1</density>
			<E>100</E>
			<v>0</v>
		</material>
	</Material>
	<Geometry>
		<Nodes name="sh23">
			<node id="1">-2.5000000e+000,-9.0000000e-001, 0.0000000e+000</node>
			<node id="2">-2.5000000e+000,-9.0000000e-001, 2.0000000e-001</node>
			<node id="3">-2.5000000e+000,-9.0000000e-001, 4.0000000e-001</node>
			<node id="4">-2.5000000e+000,-9.0000000e-001, 6.0000000e-001</node>
			<node id="5">-2.5000000e+000,-9.0000000e-001, 8.0000000e-001</node>
			<node id="6">-2.5000000e+000,-9.0000000e-001, 1.0000000e+000</node>
			<node id="7">-2.5000000e+000,-7.2000000e-001, 0.0000000e+000</node>
			<node id="8">-2.5000000e+000,-7.2000000e-001, 2.0000000e-001</node>
			<node id="9">-2.5000000e+000,-7.2000000e-001, 4.0000000e-001</node>
			<node id="10">-2.5000000e+000,-7.2000000e-001, 6.0000000e-001</node>
			<node id="11">-2.5000000e+000,-7.2000000e-001, 8.0000000e-001</node>
			<node id="12">-2.5000000e+000,-7.2000000e-001, 1.0000000e+000</node>
			<node id="13">-2.5000000e+000,-5.4000000e-001, 0.0000000e+000</node>
			<node id="14">-2.5000000e+000,-5.4000000e-001, 2.0000000e-001</node>
			<node id="15">-2.5000000e+000,-5.4000000e-001, 4.0000000e-001</node>
			<node id="16">-2.5000000e+000,-5.4000000e-001, 6.0000000e-001</node>
			<node id="17">-2.5000000e+000,-5.4000000e-001, 8.0000000e-001</node>
			<node id="18">-2.5000000e+000,-5.4000000e-001, 1.0000000e+000</node>
			<node id="19">-2.5000000e+000,-3.6000000e-001, 0.0000000e+000</node>
			<node id="20">-2.5000000e+000,-3.6000000e-001, 2.0000000e-001</node>
<!-- ... 1696 like lines cut -->
		</Nodes>
		<Elements type="hex8" mat="1" name="Part3">
			<elem id="1">     1,    67,    73,     7,     2,    68,    74,     8</elem>
			<elem id="2">     2,    68,    74,     8,     3,    69,    75,     9</elem>
			<elem id="3">     3,    69,    75,     9,     4,    70,    76,    10</elem>
			<elem id="4">     4,    70,    76,    10,     5,    71,    77,    11</elem>
			<elem id="5">     5,    71,    77,    11,     6,    72,    78,    12</elem>
			<elem id="6">     7,    73,    79,    13,     8,    74,    80,    14</elem>
			<elem id="7">     8,    74,    80,    14,     9,    75,    81,    15</elem>
			<elem id="8">     9,    75,    81,    15,    10,    76,    82,    16</elem>
			<elem id="9">    10,    76,    82,    16,    11,    77,    83,    17</elem>
			<elem id="10">    11,    77,    83,    17,    12,    78,    84,    18</elem>
			<elem id="11">    13,    79,    85,    19,    14,    80,    86,    20</elem>
			<elem id="12">    14,    80,    86,    20,    15,    81,    87,    21</elem>
			<elem id="13">    15,    81,    87,    21,    16,    82,    88,    22</elem>
			<elem id="14">    16,    82,    88,    22,    17,    83,    89,    23</elem>
			<elem id="15">    17,    83,    89,    23,    18,    84,    90,    24</elem>
			<elem id="16">    19,    85,    91,    25,    20,    86,    92,    26</elem>
			<elem id="17">    20,    86,    92,    26,    21,    87,    93,    27</elem>
			<elem id="18">    21,    87,    93,    27,    22,    88,    94,    28</elem>
			<elem id="19">    22,    88,    94,    28,    23,    89,    95,    29</elem>
			<elem id="20">    23,    89,    95,    29,    24,    90,    96,    30</elem>
<!-- ... 980 like lines cut -->
		</Elements>
		<Elements type="quad4" mat="2" name="Part4">
			<elem id="1001">     6,    72,    78,    12</elem>
			<elem id="1002">    12,    78,    84,    18</elem>
			<elem id="1003">    18,    84,    90,    24</elem>
			<elem id="1004">    24,    90,    96,    30</elem>
			<elem id="1005">    30,    96,   102,    36</elem>
			<elem id="1006">    36,   102,   108,    42</elem>
			<elem id="1007">    42,   108,   114,    48</elem>
			<elem id="1008">    48,   114,   120,    54</elem>
			<elem id="1009">    54,   120,   126,    60</elem>
			<elem id="1010">    60,   126,   132,    66</elem>
			<elem id="1011">    72,   138,   144,    78</elem>
			<elem id="1012">    78,   144,   150,    84</elem>
			<elem id="1013">    84,   150,   156,    90</elem>
			<elem id="1014">    90,   156,   162,    96</elem>
			<elem id="1015">    96,   162,   168,   102</elem>
			<elem id="1016">   102,   168,   174,   108</elem>
			<elem id="1017">   108,   174,   180,   114</elem>
			<elem id="1018">   114,   180,   186,   120</elem>
			<elem id="1019">   120,   186,   192,   126</elem>
			<elem id="1020">   126,   192,   198,   132</elem>
<!-- ... 180 like lines cut -->
		</Elements>
		<Elements type="hex8" mat="4" name="Part7">
			<elem id="1201">  1389,  1390,  1392,  1391,  1419,  1420,  1422,  1421</elem>
			<elem id="1202">  1391,  1392,  1394,  1393,  1421,  1422,  1424,  1423</elem>
			<elem id="1203">  1393,  1394,  1396,  1395,  1423,  1424,  1426,  1425</elem>
			<elem id="1204">  1395,  1396,  1398,  1397,  1425,  1426,  1428,  1427</elem>
			<elem id="1205">  1397,  1398,  1400,  1399,  1427,  1428,  1430,  1429</elem>
			<elem id="1206">  1399,  1400,  1402,  1401,  1429,  1430,  1432,  1431</elem>
			<elem id="1207">  1401,  1402,  1404,  1403,  1431,  1432,  1434,  1433</elem>
			<elem id="1208">  1403,  1404,  1406,  1405,  1433,  1434,  1436,  1435</elem>
			<elem id="1209">  1405,  1406,  1408,  1407,  1435,  1436,  1438,  1437</elem>
			<elem id="1210">  1407,  1408,  1410,  1409,  1437,  1438,  1440,  1439</elem>
			<elem id="1211">  1409,  1410,  1412,  1411,  1439,  1440,  1442,  1441</elem>
			<elem id="1212">  1411,  1412,  1414,  1413,  1441,  1442,  1444,  1443</elem>
			<elem id="1213">  1413,  1414,  1416,  1415,  1443,  1444,  1446,  1445</elem>
			<elem id="1214">  1415,  1416,  1388,  1387,  1445,  1446,  1418,  1417</elem>
			<elem id="1215">  1419,  1420,  1422,  1421,  1449,  1450,  1452,  1451</elem>
			<elem id="1216">  1421,  1422,  1424,  1423,  1451,  1452,  1454,  1453</elem>
			<elem id="1217">  1423,  1424,  1426,  1425,  1453,  1454,  1456,  1455</elem>
			<elem id="1218">  1425,  1426,  1428,  1427,  1455,  1456,  1458,  1457</elem>
			<elem id="1219">  1427,  1428,  1430,  1429,  1457,  1458,  1460,  1459</elem>
			<elem id="1220">  1429,  1430,  1432,  1431,  1459,  1460,  1462,  1461</elem>
<!-- ... 120 like lines cut -->
		</Elements>
		<Elements type="quad4" mat="3" name="Part8">
			<elem id="1341">  1390,  1392,  1422,  1420</elem>
			<elem id="1342">  1392,  1394,  1424,  1422</elem>
			<elem id="1343">  1394,  1396,  1426,  1424</elem>
			<elem id="1344">  1396,  1398,  1428,  1426</elem>
			<elem id="1345">  1398,  1400,  1430,  1428</elem>
			<elem id="1346">  1400,  1402,  1432,  1430</elem>
			<elem id="1347">  1402,  1404,  1434,  1432</elem>
			<elem id="1348">  1404,  1406,  1436,  1434</elem>
			<elem id="1349">  1406,  1408,  1438,  1436</elem>
			<elem id="1350">  1408,  1410,  1440,  1438</elem>
			<elem id="1351">  1410,  1412,  1442,  1440</elem>
			<elem id="1352">  1412,  1414,  1444,  1442</elem>
			<elem id="1353">  1414,  1416,  1446,  1444</elem>
			<elem id="1354">  1416,  1388,  1418,  1446</elem>
			<elem id="1355">  1420,  1422,  1452,  1450</elem>
			<elem id="1356">  1422,  1424,  1454,  1452</elem>
			<elem id="1357">  1424,  1426,  1456,  1454</elem>
			<elem id="1358">  1426,  1428,  1458,  1456</elem>
			<elem id="1359">  1428,  1430,  1460,  1458</elem>
			<elem id="1360">  1430,  1432,  1462,  1460</elem>
<!-- ... 120 like lines cut -->
		</Elements>
		<NodeSet name="unnamed_set01">
			<node id="4"/>
		</NodeSet>
		<NodeSet name="box1-z">
			<node id="1"/>
			<node id="7"/>
			<node id="13"/>
			<node id="19"/>
			<node id="25"/>
			<node id="31"/>
			<node id="37"/>
			<node id="43"/>
			<node id="49"/>
			<node id="55"/>
			<node id="61"/>
			<node id="67"/>
			<node id="73"/>
			<node id="79"/>
			<node id="85"/>
			<node id="91"/>
			<node id="97"/>
			<node id="103"/>
			<node id="109"/>
			<node id="115"/>
<!-- ... 211 like lines cut -->
		</NodeSet>
		<NodeSet name="box1z">
			<node id="6"/>
			<node id="12"/>
			<node id="18"/>
			<node id="24"/>
			<node id="30"/>
			<node id="36"/>
			<node id="42"/>
			<node id="48"/>
			<node id="54"/>
			<node id="60"/>
			<node id="66"/>
			<node id="72"/>
			<node id="78"/>
			<node id="84"/>
			<node id="90"/>
			<node id="96"/>
			<node id="102"/>
			<node id="108"/>
			<node id="114"/>
			<node id="120"/>
<!-- ... 211 like lines cut -->
		</NodeSet>
		<NodeSet name="box2z">
			<node id="1387"/>
			<node id="1389"/>
			<node id="1391"/>
			<node id="1393"/>
			<node id="1395"/>
			<node id="1397"/>
			<node id="1399"/>
			<node id="1401"/>
			<node id="1403"/>
			<node id="1405"/>
			<node id="1407"/>
			<node id="1409"/>
			<node id="1411"/>
			<node id="1413"/>
			<node id="1415"/>
			<node id="1417"/>
			<node id="1419"/>
			<node id="1421"/>
			<node id="1423"/>
			<node id="1425"/>
<!-- ... 145 like lines cut -->
		</NodeSet>
		<NodeSet name="box2z">
			<node id="1387"/>
			<node id="1389"/>
			<node id="1391"/>
			<node id="1393"/>
			<node id="1395"/>
			<node id="1397"/>
			<node id="1399"/>
			<node id="1401"/>
			<node id="1403"/>
			<node id="1405"/>
			<node id="1407"/>
			<node id="1409"/>
			<node id="1411"/>
			<node id="1413"/>
			<node id="1415"/>
			<node id="1417"/>
			<node id="1419"/>
			<node id="1421"/>
			<node id="1423"/>
			<node id="1425"/>
<!-- ... 145 like lines cut -->
		</NodeSet>
		<NodeSet name="box2z">
			<node id="1387"/>
			<node id="1389"/>
			<node id="1391"/>
			<node id="1393"/>
			<node id="1395"/>
			<node id="1397"/>
			<node id="1399"/>
			<node id="1401"/>
			<node id="1403"/>
			<node id="1405"/>
			<node id="1407"/>
			<node id="1409"/>
			<node id="1411"/>
			<node id="1413"/>
			<node id="1415"/>
			<node id="1417"/>
			<node id="1419"/>
			<node id="1421"/>
			<node id="1423"/>
			<node id="1425"/>
<!-- ... 145 like lines cut -->
		</NodeSet>
		<NodeSet name="unnamed_set01">
			<node id="4"/>
		</NodeSet>
		<Surface name="MasterSurface01">
			<quad4 id="1">     6,    72,    78,    12</quad4>
			<quad4 id="2">    12,    78,    84,    18</quad4>
			<quad4 id="3">    18,    84,    90,    24</quad4>
			<quad4 id="4">    24,    90,    96,    30</quad4>
			<quad4 id="5">    30,    96,   102,    36</quad4>
			<quad4 id="6">    36,   102,   108,    42</quad4>
			<quad4 id="7">    42,   108,   114,    48</quad4>
			<quad4 id="8">    48,   114,   120,    54</quad4>
			<quad4 id="9">    54,   120,   126,    60</quad4>
			<quad4 id="10">    60,   126,   132,    66</quad4>
			<quad4 id="11">    72,   138,   144,    78</quad4>
			<quad4 id="12">    78,   144,   150,    84</quad4>
			<quad4 id="13">    84,   150,   156,    90</quad4>
			<quad4 id="14">    90,   156,   162,    96</quad4>
			<quad4 id="15">    96,   162,   168,   102</quad4>
			<quad4 id="16">   102,   168,   174,   108</quad4>
			<quad4 id="17">   108,   174,   180,   114</quad4>
			<quad4 id="18">   114,   180,   186,   120</quad4>
			<quad4 id="19">   120,   186,   192,   126</quad4>
			<quad4 id="20">   126,   192,   198,   132</quad4>
<!-- ... 180 like lines cut -->
		</Surface>
		<Surface name="SlaveSurface01">
			<quad4 id="1">  1390,  1392,  1422,  1420</quad4>
			<quad4 id="2">  1392,  1394,  1424,  1422</quad4>
			<quad4 id="3">  1394,  1396,  1426,  1424</quad4>
			<quad4 id="4">  1396,  1398,  1428,  1426</quad4>
			<quad4 id="5">  1398,  1400,  1430,  1428</quad4>
			<quad4 id="6">  1400,  1402,  1432,  1430</quad4>
			<quad4 id="7">  1402,  1404,  1434,  1432</quad4>
			<quad4 id="8">  1404,  1406,  1436,  1434</quad4>
			<quad4 id="9">  1406,  1408,  1438,  1436</quad4>
			<quad4 id="10">  1408,  1410,  1440,  1438</quad4>
			<quad4 id="11">  1410,  1412,  1442,  1440</quad4>
			<quad4 id="12">  1412,  1414,  1444,  1442</quad4>
			<quad4 id="13">  1414,  1416,  1446,  1444</quad4>
			<quad4 id="14">  1416,  1388,  1418,  1446</quad4>
			<quad4 id="15">  1420,  1422,  1452,  1450</quad4>
			<quad4 id="16">  1422,  1424,  1454,  1452</quad4>
			<quad4 id="17">  1424,  1426,  1456,  1454</quad4>
			<quad4 id="18">  1426,  1428,  1458,  1456</quad4>
			<quad4 id="19">  1428,  1430,  1460,  1458</quad4>
			<quad4 id="20">  1430,  1432,  1462,  1460</quad4>
<!-- ... 120 like lines cut -->
		</Surface>
		<SurfacePair name="TCInterface01">
			<master surface="MasterSurface01"/>
			<slave surface="SlaveSurface01"/>
		</SurfacePair>
	</Geometry>
	<MeshData>
		<ElementData var="shell thickness" elem_set="Part4">
			<elem lid="1">0.01,0.01,0.01,0.01</elem>
			<elem lid="2">0.01,0.01,0.01,0.01</elem>
			<elem lid="3">0.01,0.01,0.01,0.01</elem>
			<elem lid="4">0.01,0.01,0.01,0.01</elem>
			<elem lid="5">0.01,0.01,0.01,0.01</elem>
			<elem lid="6">0.01,0.01,0.01,0.01</elem>
			<elem lid="7">0.01,0.01,0.01,0.01</elem>
			<elem lid="8">0.01,0.01,0.01,0.01</elem>
			<elem lid="9">0.01,0.01,0.01,0.01</elem>
			<elem lid="10">0.01,0.01,0.01,0.01</elem>
			<elem lid="11">0.01,0.01,0.01,0.01</elem>
			<elem lid="12">0.01,0.01,0.01,0.01</elem>
			<elem lid="13">0.01,0.01,0.01,0.01</elem>
			<elem lid="14">0.01,0.01,0.01,0.01</elem>
			<elem lid="15">0.01,0.01,0.01,0.01</elem>
			<elem lid="16">0.01,0.01,0.01,0.01</elem>
			<elem lid="17">0.01,0.01,0.01,0.01</elem>
			<elem lid="18">0.01,0.01,0.01,0.01</elem>
			<elem lid="19">0.01,0.01,0.01,0.01</elem>
			<elem lid="20">0.01,0.01,0.01,0.01</elem>
<!-- ... 180 like lines cut -->
		</ElementData>
		<ElementData var="shell thickness" elem_set="Part8">
			<elem lid="1">0.01,0.01,0.01,0.01</elem>
			<elem lid="2">0.01,0.01,0.01,0.01</elem>
			<elem lid="3">0.01,0.01,0.01,0.01</elem>
			<elem lid="4">0.01,0.01,0.01,0.01</elem>
			<elem lid="5">0.01,0.01,0.01,0.01</elem>
			<elem lid="6">0.01,0.01,0.01,0.01</elem>
			<elem lid="7">0.01,0.01,0.01,0.01</elem>
			<elem lid="8">0.01,0.01,0.01,0.01</elem>
			<elem lid="9">0.01,0.01,0.01,0.01</elem>
			<elem lid="10">0.01,0.01,0.01,0.01</elem>
			<elem lid="11">0.01,0.01,0.01,0.01</elem>
			<elem lid="12">0.01,0.01,0.01,0.01</elem>
			<elem lid="13">0.01,0.01,0.01,0.01</elem>
			<elem lid="14">0.01,0.01,0.01,0.01</elem>
			<elem lid="15">0.01,0.01,0.01,0.01</elem>
			<elem lid="16">0.01,0.01,0.01,0.01</elem>
			<elem lid="17">0.01,0.01,0.01,0.01</elem>
			<elem lid="18">0.01,0.01,0.01,0.01</elem>
			<elem lid="19">0.01,0.01,0.01,0.01</elem>
			<elem lid="20">0.01,0.01,0.01,0.01</elem>
<!-- ... 120 like lines cut -->
		</ElementData>
	</MeshData>
	<Boundary>
		<fix bc="x,y,z" node_set="box1-z"/>
		<fix bc="x,y" node_set="box1z"/>
		<fix bc="y" node_set="box2z"/>
		<prescribe bc="x" node_set="box2z">
			<scale lc="1">1</scale>
			<relative>0</relative>
		</prescribe>
		<prescribe bc="z" node_set="box2z">
			<scale lc="2">1</scale>
			<relative>0</relative>
		</prescribe>
	</Boundary>
	<Contact>
		<contact type="sliding-elastic" name="TCInterface01" surface_pair="TCInterface01">
			<laugon>0</laugon>
			<tolerance>0.01</tolerance>
			<gaptol>0</gaptol>
			<penalty>0.01</penalty>
			<auto_penalty>1</auto_penalty>
			<two_pass>1</two_pass>
			<search_tol>0.01</search_tol>
			<symmetric_stiffness>0</symmetric_stiffness>
			<search_radius>1</search_radius>
			<seg_up>0</seg_up>
			<tension>0</tension>
			<minaug>0</minaug>
			<maxaug>10</maxaug>
			<fric_coeff>0</fric_coeff>
			<smooth_aug>0</smooth_aug>
			<node_reloc>0</node_reloc>
		</contact>
	</Contact>
	<LoadData>
		<loadcurve id="1" type="linear">
			<point>0,0</point>
			<point>1,0</point>
			<point>4,3</point>
		</loadcurve>
		<loadcurve id="2" type="linear">
			<point>0,0</point>
			<point>0.1,-1</point>
			<point>1,-1.35</point>
			<point>2,-1.35</point>
		</loadcurve>
	</LoadData>
	<Output>
		<plotfile type="febio">
			<var type="contact gap"/>
			<var type="contact pressure"/>
			<var type="displacement"/>
			<var type="relative volume"/>
			<var type="shell director"/>
			<var type="shell strain"/>
			<var type="stress"/>
		</plotfile>
		<logfile>
			<node_data data="z" node_set="unnamed_set01"/>
		</logfile>
	</Output>
</febio_spec>
