<?xml version="1.0" encoding="ISO-8859-1"?>
<febio_spec version="2.5">
	<Module type="solid"/>
	<Control>
		<time_steps>100</time_steps>
		<step_size>0.01</step_size>
		<max_refs>15</max_refs>
		<max_ups>0</max_ups>
		<diverge_reform>1</diverge_reform>
		<reform_each_time_step>1</reform_each_time_step>
		<dtol>0.001</dtol>
		<etol>0.01</etol>
		<rtol>0</rtol>
		<lstol>0.9</lstol>
		<min_residual>1e-020</min_residual>
		<qnmethod>0</qnmethod>
		<time_stepper>
			<dtmin>0.001</dtmin>
			<dtmax>0.1</dtmax>
			<max_retries>5</max_retries>
			<opt_iter>10</opt_iter>
			<aggressiveness>1</aggressiveness>
		</time_stepper>
		<analysis type="static"/>
	</Control>
	<Globals>
		<Constants>
			<T>293</T>
			<R>0.008314</R>
			<Fc>0.0965</Fc>
		</Constants>
	</Globals>
	<Material>
		<material id="1" name="mat1" type="solid mixture">
			<mat_axis type="vector">
				<a>1,0,0</a>
				<d>0,1,0</d>
			</mat_axis>
			<solid type="neo-Hookean">
				<density>1</density>
				<E>1</E>
				<v>0.3</v>
			</solid>
			<solid type="continuous fiber distribution">
				<fibers type="fiber-exponential-power-law">
					<alpha>20</alpha>
					<beta>2</beta>
					<ksi>5</ksi>
					<mu>0</mu>
				</fibers>
				<distribution type="von-Mises-3d">
					<b>3</b>
				</distribution>
				<scheme type="fibers-3d-gkt">
					<nph>11</nph>
					<nth>31</nth>
				</scheme>
			</solid>
		</material>
		<material id="2" name="shell1" type="rigid body">
			<density>1</density>
		</material>
		<material id="3" name="shell1" type="rigid body">
			<density>1</density>
		</material>
	</Material>
	<Geometry>
		<Nodes name="sh39">
			<node id="1">-5.0000000e+000,-1.5000000e+000, 0.0000000e+000</node>
			<node id="2">-5.0000000e+000,-7.5000000e-001, 0.0000000e+000</node>
			<node id="3">-5.0000000e+000, 0.0000000e+000, 0.0000000e+000</node>
			<node id="4">-5.0000000e+000, 7.5000000e-001, 0.0000000e+000</node>
			<node id="5">-5.0000000e+000, 1.5000000e+000, 0.0000000e+000</node>
			<node id="6">-4.0000000e+000,-1.5000000e+000, 0.0000000e+000</node>
			<node id="7">-4.0000000e+000,-7.5000000e-001, 0.0000000e+000</node>
			<node id="8">-4.0000000e+000, 0.0000000e+000, 0.0000000e+000</node>
			<node id="9">-4.0000000e+000, 7.5000000e-001, 0.0000000e+000</node>
			<node id="10">-4.0000000e+000, 1.5000000e+000, 0.0000000e+000</node>
			<node id="11">-3.0000000e+000,-1.5000000e+000, 0.0000000e+000</node>
			<node id="12">-3.0000000e+000,-7.5000000e-001, 0.0000000e+000</node>
			<node id="13">-3.0000000e+000, 0.0000000e+000, 0.0000000e+000</node>
			<node id="14">-3.0000000e+000, 7.5000000e-001, 0.0000000e+000</node>
			<node id="15">-3.0000000e+000, 1.5000000e+000, 0.0000000e+000</node>
			<node id="16">-2.0000000e+000,-1.5000000e+000, 0.0000000e+000</node>
			<node id="17">-2.0000000e+000,-7.5000000e-001, 0.0000000e+000</node>
			<node id="18">-2.0000000e+000, 0.0000000e+000, 0.0000000e+000</node>
			<node id="19">-2.0000000e+000, 7.5000000e-001, 0.0000000e+000</node>
			<node id="20">-2.0000000e+000, 1.5000000e+000, 0.0000000e+000</node>
<!-- ... 129 like lines cut -->
		</Nodes>
		<Elements type="quad8" mat="1" name="Part3">
			<elem id="1">     1,     6,     7,     2,    56,    65,    58,    57</elem>
			<elem id="2">     2,     7,     8,     3,    58,    67,    60,    59</elem>
			<elem id="3">     3,     8,     9,     4,    60,    69,    62,    61</elem>
			<elem id="4">     4,     9,    10,     5,    62,    71,    64,    63</elem>
			<elem id="5">     6,    11,    12,     7,    66,    74,    68,    65</elem>
			<elem id="6">     7,    12,    13,     8,    68,    76,    70,    67</elem>
			<elem id="7">     8,    13,    14,     9,    70,    78,    72,    69</elem>
			<elem id="8">     9,    14,    15,    10,    72,    80,    73,    71</elem>
			<elem id="9">    11,    16,    17,    12,    75,    83,    77,    74</elem>
			<elem id="10">    12,    17,    18,    13,    77,    85,    79,    76</elem>
			<elem id="11">    13,    18,    19,    14,    79,    87,    81,    78</elem>
			<elem id="12">    14,    19,    20,    15,    81,    89,    82,    80</elem>
			<elem id="13">    16,    21,    22,    17,    84,    92,    86,    83</elem>
			<elem id="14">    17,    22,    23,    18,    86,    94,    88,    85</elem>
			<elem id="15">    18,    23,    24,    19,    88,    96,    90,    87</elem>
			<elem id="16">    19,    24,    25,    20,    90,    98,    91,    89</elem>
			<elem id="17">    21,    26,    27,    22,    93,   101,    95,    92</elem>
			<elem id="18">    22,    27,    28,    23,    95,   103,    97,    94</elem>
			<elem id="19">    23,    28,    29,    24,    97,   105,    99,    96</elem>
			<elem id="20">    24,    29,    30,    25,    99,   107,   100,    98</elem>
<!-- ... 20 like lines cut -->
		</Elements>
		<NodeSet name="RigidNodeset 1">
			<node id="1"/>
			<node id="2"/>
			<node id="3"/>
			<node id="4"/>
			<node id="5"/>
			<node id="57"/>
			<node id="59"/>
			<node id="61"/>
			<node id="63"/>
		</NodeSet>
		<NodeSet name="RigidNodeset 2">
			<node id="51"/>
			<node id="52"/>
			<node id="53"/>
			<node id="54"/>
			<node id="55"/>
			<node id="146"/>
			<node id="147"/>
			<node id="148"/>
			<node id="149"/>
		</NodeSet>
		<ElementSet name="unnamed_set01">
			<elem id="18"/>
		</ElementSet>
	</Geometry>
	<MeshData>
		<ElementData var="shell thickness" elem_set="Part3">
			<elem lid="1">0.01,0.01,0.01,0.01,0.01,0.01,0.01,0.01</elem>
			<elem lid="2">0.01,0.01,0.01,0.01,0.01,0.01,0.01,0.01</elem>
			<elem lid="3">0.01,0.01,0.01,0.01,0.01,0.01,0.01,0.01</elem>
			<elem lid="4">0.01,0.01,0.01,0.01,0.01,0.01,0.01,0.01</elem>
			<elem lid="5">0.01,0.01,0.01,0.01,0.01,0.01,0.01,0.01</elem>
			<elem lid="6">0.01,0.01,0.01,0.01,0.01,0.01,0.01,0.01</elem>
			<elem lid="7">0.01,0.01,0.01,0.01,0.01,0.01,0.01,0.01</elem>
			<elem lid="8">0.01,0.01,0.01,0.01,0.01,0.01,0.01,0.01</elem>
			<elem lid="9">0.01,0.01,0.01,0.01,0.01,0.01,0.01,0.01</elem>
			<elem lid="10">0.01,0.01,0.01,0.01,0.01,0.01,0.01,0.01</elem>
			<elem lid="11">0.01,0.01,0.01,0.01,0.01,0.01,0.01,0.01</elem>
			<elem lid="12">0.01,0.01,0.01,0.01,0.01,0.01,0.01,0.01</elem>
			<elem lid="13">0.01,0.01,0.01,0.01,0.01,0.01,0.01,0.01</elem>
			<elem lid="14">0.01,0.01,0.01,0.01,0.01,0.01,0.01,0.01</elem>
			<elem lid="15">0.01,0.01,0.01,0.01,0.01,0.01,0.01,0.01</elem>
			<elem lid="16">0.01,0.01,0.01,0.01,0.01,0.01,0.01,0.01</elem>
			<elem lid="17">0.01,0.01,0.01,0.01,0.01,0.01,0.01,0.01</elem>
			<elem lid="18">0.01,0.01,0.01,0.01,0.01,0.01,0.01,0.01</elem>
			<elem lid="19">0.01,0.01,0.01,0.01,0.01,0.01,0.01,0.01</elem>
			<elem lid="20">0.01,0.01,0.01,0.01,0.01,0.01,0.01,0.01</elem>
<!-- ... 20 like lines cut -->
		</ElementData>
	</MeshData>
	<Boundary>
		<rigid name="RigidInterface02" rb="2" node_set="RigidNodeset 1"/>
		<rigid name="RigidInterface03" rb="3" node_set="RigidNodeset 2"/>
		<rigid_body mat="2">
			<fixed bc="x"/>
			<fixed bc="y"/>
			<fixed bc="z"/>
			<fixed bc="Rx"/>
			<fixed bc="Ry"/>
			<fixed bc="Rz"/>
		</rigid_body>
		<rigid_body mat="3">
			<prescribed bc="x" lc="1">1</prescribed>
		</rigid_body>
		<rigid_body mat="3">
			<fixed bc="y"/>
			<fixed bc="z"/>
			<fixed bc="Rx"/>
			<fixed bc="Ry"/>
			<fixed bc="Rz"/>
		</rigid_body>
	</Boundary>
	<Contact>
	</Contact>
	<LoadData>
		<loadcurve id="1" type="linear">
			<point>0,0</point>
			<point>1,2</point>
		</loadcurve>
	</LoadData>
	<Output>
		<plotfile type="febio">
			<var type="displacement"/>
			<var type="relative volume"/>
			<var type="shell director"/>
			<var type="shell strain"/>
			<var type="stress"/>
		</plotfile>
		<logfile>
			<element_data data="sx" elem_set="unnamed_set01"/>
		</logfile>
	</Output>
</febio_spec>
