<?xml version="1.0" encoding="ISO-8859-1"?>
<febio_spec version="2.5">
	<Module type="solid"/>
	<Control>
		<time_steps>100</time_steps>
		<step_size>0.01</step_size>
		<max_refs>15</max_refs>
		<max_ups>0</max_ups>
		<diverge_reform>1</diverge_reform>
		<reform_each_time_step>1</reform_each_time_step>
		<dtol>0.001</dtol>
		<etol>0.01</etol>
		<rtol>0</rtol>
		<lstol>0.9</lstol>
		<min_residual>1e-020</min_residual>
		<qnmethod>0</qnmethod>
		<time_stepper>
			<dtmin>0.01</dtmin>
			<dtmax>0.1</dtmax>
			<max_retries>5</max_retries>
			<opt_iter>10</opt_iter>
		</time_stepper>
		<analysis type="static"/>
	</Control>
	<Globals>
		<Constants>
			<T>293</T>
			<R>0.008314</R>
			<Fc>0.0965</Fc>
		</Constants>
	</Globals>
	<Material>
		<material id="1" name="box1" type="neo-Hookean">
			<density>1</density>
			<E>1</E>
			<v>0.45</v>
		</material>
	</Material>
	<Geometry>
		<Nodes name="sh57">
			<node id="1">-3.3426407e-001,-3.3426407e-001, 0.0000000e+000</node>
			<node id="2">-3.4777878e-001,-2.3185252e-001, 0.0000000e+000</node>
			<node id="3">-3.5718203e-001,-1.1906068e-001, 0.0000000e+000</node>
			<node id="4">-3.6062446e-001, 0.0000000e+000, 0.0000000e+000</node>
			<node id="5">-3.5718203e-001, 1.1906068e-001, 0.0000000e+000</node>
			<node id="6">-3.4777878e-001, 2.3185252e-001, 0.0000000e+000</node>
			<node id="7">-3.3426407e-001, 3.3426407e-001, 0.0000000e+000</node>
			<node id="8">-2.3185252e-001,-3.4777878e-001, 0.0000000e+000</node>
			<node id="9">-2.4284271e-001,-2.4284271e-001, 0.0000000e+000</node>
			<node id="10">-2.5121994e-001,-1.2560997e-001, 0.0000000e+000</node>
			<node id="11">-2.5455844e-001, 0.0000000e+000, 0.0000000e+000</node>
			<node id="12">-2.5121994e-001, 1.2560997e-001, 0.0000000e+000</node>
			<node id="13">-2.4284271e-001, 2.4284271e-001, 0.0000000e+000</node>
			<node id="14">-2.3185252e-001, 3.4777878e-001, 0.0000000e+000</node>
			<node id="15">-1.1906068e-001,-3.5718203e-001, 0.0000000e+000</node>
			<node id="16">-1.2560997e-001,-2.5121994e-001, 0.0000000e+000</node>
			<node id="17">-1.3142136e-001,-1.3142136e-001, 0.0000000e+000</node>
			<node id="18">-1.3435029e-001, 0.0000000e+000, 0.0000000e+000</node>
			<node id="19">-1.3142136e-001, 1.3142136e-001, 0.0000000e+000</node>
			<node id="20">-1.2560997e-001, 2.5121994e-001, 0.0000000e+000</node>
<!-- ... 545 like lines cut -->
		</Nodes>
		<Elements type="quad8" mat="1" name="Part3">
			<elem id="1">     1,     8,     9,     2,   194,   214,   197,   195</elem>
			<elem id="2">     8,    15,    16,     9,   215,   229,   217,   214</elem>
			<elem id="3">    15,    22,    23,    16,   230,   244,   232,   229</elem>
			<elem id="4">    22,    29,    30,    23,   245,   259,   247,   244</elem>
			<elem id="5">    29,    36,    37,    30,   260,   274,   262,   259</elem>
			<elem id="6">    36,    43,    44,    37,   275,   289,   277,   274</elem>
			<elem id="7">     2,     9,    10,     3,   197,   218,   200,   198</elem>
			<elem id="8">     9,    16,    17,    10,   217,   233,   219,   218</elem>
			<elem id="9">    16,    23,    24,    17,   232,   248,   234,   233</elem>
			<elem id="10">    23,    30,    31,    24,   247,   263,   249,   248</elem>
			<elem id="11">    30,    37,    38,    31,   262,   278,   264,   263</elem>
			<elem id="12">    37,    44,    45,    38,   277,   291,   279,   278</elem>
			<elem id="13">     3,    10,    11,     4,   200,   220,   203,   201</elem>
			<elem id="14">    10,    17,    18,    11,   219,   235,   221,   220</elem>
			<elem id="15">    17,    24,    25,    18,   234,   250,   236,   235</elem>
			<elem id="16">    24,    31,    32,    25,   249,   265,   251,   250</elem>
			<elem id="17">    31,    38,    39,    32,   264,   280,   266,   265</elem>
			<elem id="18">    38,    45,    46,    39,   279,   293,   281,   280</elem>
			<elem id="19">     4,    11,    12,     5,   203,   222,   206,   204</elem>
			<elem id="20">    11,    18,    19,    12,   221,   237,   223,   222</elem>
<!-- ... 160 like lines cut -->
		</Elements>
		<NodeSet name="unnamed_set01">
			<node id="4"/>
		</NodeSet>
		<NodeSet name="edge">
			<node id="170"/>
			<node id="171"/>
			<node id="172"/>
			<node id="173"/>
			<node id="174"/>
			<node id="175"/>
			<node id="176"/>
			<node id="177"/>
			<node id="178"/>
			<node id="179"/>
			<node id="180"/>
			<node id="181"/>
			<node id="182"/>
			<node id="183"/>
			<node id="184"/>
			<node id="185"/>
			<node id="186"/>
			<node id="187"/>
			<node id="188"/>
			<node id="189"/>
<!-- ... 172 like lines cut -->
		</NodeSet>
		<NodeSet name="edge">
			<node id="170"/>
			<node id="171"/>
			<node id="172"/>
			<node id="173"/>
			<node id="174"/>
			<node id="175"/>
			<node id="176"/>
			<node id="177"/>
			<node id="178"/>
			<node id="179"/>
			<node id="180"/>
			<node id="181"/>
			<node id="182"/>
			<node id="183"/>
			<node id="184"/>
			<node id="185"/>
			<node id="186"/>
			<node id="187"/>
			<node id="188"/>
			<node id="189"/>
<!-- ... 172 like lines cut -->
		</NodeSet>
		<NodeSet name="unnamed_set01">
			<node id="4"/>
		</NodeSet>
		<Surface name="patchz">
			<quad8 id="1">    25,    32,    33,    26,   251,   267,   253,   252</quad8>
			<quad8 id="2">    32,    39,    40,    33,   266,   282,   268,   267</quad8>
			<quad8 id="3">    39,    46,    47,    40,   281,   295,   283,   282</quad8>
			<quad8 id="4">    26,    33,    34,    27,   253,   269,   255,   254</quad8>
			<quad8 id="5">    33,    40,    41,    34,   268,   284,   270,   269</quad8>
			<quad8 id="6">    40,    47,    48,    41,   283,   297,   285,   284</quad8>
			<quad8 id="7">    27,    34,    35,    28,   255,   271,   257,   256</quad8>
			<quad8 id="8">    34,    41,    42,    35,   270,   286,   272,   271</quad8>
			<quad8 id="9">    41,    48,    49,    42,   285,   299,   287,   286</quad8>
			<quad8 id="10">     4,    52,    53,     3,   205,   307,   202,   201</quad8>
			<quad8 id="11">     3,    53,    54,     2,   202,   309,   199,   198</quad8>
			<quad8 id="12">     2,    54,    55,     1,   199,   311,   196,   195</quad8>
			<quad8 id="13">     1,    55,    56,     8,   196,   313,   216,   194</quad8>
			<quad8 id="14">     8,    56,    57,    15,   216,   315,   231,   215</quad8>
			<quad8 id="15">    15,    57,    58,    22,   231,   317,   246,   230</quad8>
			<quad8 id="16">    52,    76,    77,    53,   308,   355,   310,   307</quad8>
			<quad8 id="17">    53,    77,    78,    54,   310,   357,   312,   309</quad8>
			<quad8 id="18">    54,    78,    79,    55,   312,   359,   314,   311</quad8>
			<quad8 id="19">    55,    79,    80,    56,   314,   361,   316,   313</quad8>
			<quad8 id="20">    56,    80,    81,    57,   316,   363,   318,   315</quad8>
<!-- ... 160 like lines cut -->
		</Surface>
	</Geometry>
	<MeshData>
		<ElementData var="shell thickness" elem_set="Part3">
			<elem lid="1">0.01,0.01,0.01,0.01,0.01,0.01,0.01,0.01</elem>
			<elem lid="2">0.01,0.01,0.01,0.01,0.01,0.01,0.01,0.01</elem>
			<elem lid="3">0.01,0.01,0.01,0.01,0.01,0.01,0.01,0.01</elem>
			<elem lid="4">0.01,0.01,0.01,0.01,0.01,0.01,0.01,0.01</elem>
			<elem lid="5">0.01,0.01,0.01,0.01,0.01,0.01,0.01,0.01</elem>
			<elem lid="6">0.01,0.01,0.01,0.01,0.01,0.01,0.01,0.01</elem>
			<elem lid="7">0.01,0.01,0.01,0.01,0.01,0.01,0.01,0.01</elem>
			<elem lid="8">0.01,0.01,0.01,0.01,0.01,0.01,0.01,0.01</elem>
			<elem lid="9">0.01,0.01,0.01,0.01,0.01,0.01,0.01,0.01</elem>
			<elem lid="10">0.01,0.01,0.01,0.01,0.01,0.01,0.01,0.01</elem>
			<elem lid="11">0.01,0.01,0.01,0.01,0.01,0.01,0.01,0.01</elem>
			<elem lid="12">0.01,0.01,0.01,0.01,0.01,0.01,0.01,0.01</elem>
			<elem lid="13">0.01,0.01,0.01,0.01,0.01,0.01,0.01,0.01</elem>
			<elem lid="14">0.01,0.01,0.01,0.01,0.01,0.01,0.01,0.01</elem>
			<elem lid="15">0.01,0.01,0.01,0.01,0.01,0.01,0.01,0.01</elem>
			<elem lid="16">0.01,0.01,0.01,0.01,0.01,0.01,0.01,0.01</elem>
			<elem lid="17">0.01,0.01,0.01,0.01,0.01,0.01,0.01,0.01</elem>
			<elem lid="18">0.01,0.01,0.01,0.01,0.01,0.01,0.01,0.01</elem>
			<elem lid="19">0.01,0.01,0.01,0.01,0.01,0.01,0.01,0.01</elem>
			<elem lid="20">0.01,0.01,0.01,0.01,0.01,0.01,0.01,0.01</elem>
<!-- ... 160 like lines cut -->
		</ElementData>
	</MeshData>
	<Boundary>
		<fix bc="x,y,z" node_set="edge"/>
		<fix bc="sx,sy,sz" node_set="edge"/>
	</Boundary>
	<Loads>
		<surface_load type="pressure" surface="patchz">
			<pressure lc="1">1</pressure>
			<linear>0</linear>
		</surface_load>
	</Loads>
	<LoadData>
		<loadcurve id="1" type="linear">
			<point>0,0</point>
			<point>1,-0.005</point>
		</loadcurve>
	</LoadData>
	<Output>
		<plotfile type="febio">
			<var type="displacement"/>
			<var type="relative volume"/>
			<var type="shell director"/>
			<var type="shell strain"/>
			<var type="stress"/>
		</plotfile>
		<logfile>
			<node_data data="z" node_set="unnamed_set01"/>
		</logfile>
	</Output>
</febio_spec>
