<?xml version="1.0" encoding="ISO-8859-1"?>
<!--
Problem Description:
	A shell disk is constrained in x,y,z on the edges and has a pressure of 0 units
	at time t=0 to -0.005 units at time t=1.
Main Features:
	EAS Shells
	Pressure
Secondary Features:
	
Materials:
	Neo-Hookean
Degrees of Freedom: 1014
Results
	Steps Completed: 30
	Equilibrium Iterations: 303
	Right Hand Evaluations: 396
	Siffness Reformations: 40
	Other:
		The disk has a maximum z-displacement of 0.715 at time t=1.
Comments:
	
-->
<febio_spec version="2.5">
	<Module type="solid"/>
	<Control>
		<time_steps>100</time_steps>
		<step_size>0.01</step_size>
		<max_refs>15</max_refs>
		<max_ups>10</max_ups>
		<diverge_reform>1</diverge_reform>
		<reform_each_time_step>1</reform_each_time_step>
		<dtol>0.001</dtol>
		<etol>0.01</etol>
		<rtol>0</rtol>
		<lstol>0.9</lstol>
		<min_residual>1e-020</min_residual>
		<qnmethod>0</qnmethod>
		<time_stepper>
			<dtmin>0.01</dtmin>
			<dtmax>0.1</dtmax>
			<max_retries>5</max_retries>
			<opt_iter>10</opt_iter>
		</time_stepper>
		<analysis type="static"/>
	</Control>
	<Globals>
		<Constants>
			<T>0</T>
			<R>0</R>
			<Fc>0</Fc>
		</Constants>
	</Globals>
	<Material>
		<material id="1" name="Material 1" type="neo-Hookean">
			<density>1</density>
			<E>1</E>
			<v>0.45</v>
		</material>
	</Material>
	<Geometry>
		<Nodes name="sh05">
			<node id="1">-3.1819805e-001,-3.1819805e-001, 0.0000000e+000</node>
			<node id="2">-3.3647104e-001,-2.2431403e-001, 0.0000000e+000</node>
			<node id="3">-3.4537541e-001,-1.1512514e-001, 0.0000000e+000</node>
			<node id="4">-3.4785349e-001, 0.0000000e+000, 0.0000000e+000</node>
			<node id="5">-3.4537541e-001, 1.1512514e-001, 0.0000000e+000</node>
			<node id="6">-3.3647104e-001, 2.2431403e-001, 0.0000000e+000</node>
			<node id="7">-3.1819805e-001, 3.1819805e-001, 0.0000000e+000</node>
			<node id="8">-2.2431403e-001,-3.3647104e-001, 0.0000000e+000</node>
			<node id="9">-2.3334524e-001,-2.3334524e-001, 0.0000000e+000</node>
			<node id="10">-2.3592706e-001,-1.1796353e-001, 0.0000000e+000</node>
			<node id="11">-2.3591883e-001, 0.0000000e+000, 0.0000000e+000</node>
			<node id="12">-2.3592706e-001, 1.1796353e-001, 0.0000000e+000</node>
			<node id="13">-2.3334524e-001, 2.3334524e-001, 0.0000000e+000</node>
			<node id="14">-2.2431403e-001, 3.3647104e-001, 0.0000000e+000</node>
			<node id="15">-1.1512514e-001,-3.4537541e-001, 0.0000000e+000</node>
			<node id="16">-1.1796353e-001,-2.3592706e-001, 0.0000000e+000</node>
			<node id="17">-1.1667262e-001,-1.1667262e-001, 0.0000000e+000</node>
			<node id="18">-1.1466437e-001, 0.0000000e+000, 0.0000000e+000</node>
			<node id="19">-1.1667262e-001, 1.1667262e-001, 0.0000000e+000</node>
			<node id="20">-1.1796353e-001, 2.3592706e-001, 0.0000000e+000</node>
<!-- ... 173 like lines cut -->
		</Nodes>
		<Elements type="q4eas" mat="1" name="Part41">
			<elem id="1">     1,     8,     9,     2</elem>
			<elem id="2">     8,    15,    16,     9</elem>
			<elem id="3">    15,    22,    23,    16</elem>
			<elem id="4">    22,    29,    30,    23</elem>
			<elem id="5">    29,    36,    37,    30</elem>
			<elem id="6">    36,    43,    44,    37</elem>
			<elem id="7">     2,     9,    10,     3</elem>
			<elem id="8">     9,    16,    17,    10</elem>
			<elem id="9">    16,    23,    24,    17</elem>
			<elem id="10">    23,    30,    31,    24</elem>
			<elem id="11">    30,    37,    38,    31</elem>
			<elem id="12">    37,    44,    45,    38</elem>
			<elem id="13">     3,    10,    11,     4</elem>
			<elem id="14">    10,    17,    18,    11</elem>
			<elem id="15">    17,    24,    25,    18</elem>
			<elem id="16">    24,    31,    32,    25</elem>
			<elem id="17">    31,    38,    39,    32</elem>
			<elem id="18">    38,    45,    46,    39</elem>
			<elem id="19">     4,    11,    12,     5</elem>
			<elem id="20">    11,    18,    19,    12</elem>
<!-- ... 160 like lines cut -->
		</Elements>
		<NodeSet name="FixedShellDisplacement01">
			<node id="4"/>
			<node id="11"/>
			<node id="18"/>
			<node id="25"/>
			<node id="32"/>
			<node id="39"/>
			<node id="46"/>
			<node id="52"/>
			<node id="64"/>
			<node id="76"/>
			<node id="88"/>
			<node id="100"/>
			<node id="112"/>
			<node id="124"/>
			<node id="136"/>
			<node id="148"/>
			<node id="160"/>
			<node id="172"/>
			<node id="184"/>
		</NodeSet>
		<NodeSet name="FixedDisplacement01">
			<node id="4"/>
			<node id="11"/>
			<node id="18"/>
			<node id="25"/>
			<node id="32"/>
			<node id="39"/>
			<node id="46"/>
			<node id="52"/>
			<node id="64"/>
			<node id="76"/>
			<node id="88"/>
			<node id="100"/>
			<node id="112"/>
			<node id="124"/>
			<node id="136"/>
			<node id="148"/>
			<node id="160"/>
			<node id="170"/>
			<node id="171"/>
			<node id="172"/>
<!-- ... 21 like lines cut -->
		</NodeSet>
		<NodeSet name="FixedShellDisplacement02">
			<node id="22"/>
			<node id="23"/>
			<node id="24"/>
			<node id="25"/>
			<node id="26"/>
			<node id="27"/>
			<node id="28"/>
			<node id="58"/>
			<node id="70"/>
			<node id="82"/>
			<node id="94"/>
			<node id="106"/>
			<node id="118"/>
			<node id="130"/>
			<node id="142"/>
			<node id="154"/>
			<node id="166"/>
			<node id="178"/>
			<node id="190"/>
		</NodeSet>
		<NodeSet name="FixedDisplacement02">
			<node id="22"/>
			<node id="23"/>
			<node id="24"/>
			<node id="25"/>
			<node id="26"/>
			<node id="27"/>
			<node id="28"/>
			<node id="58"/>
			<node id="70"/>
			<node id="82"/>
			<node id="94"/>
			<node id="106"/>
			<node id="118"/>
			<node id="130"/>
			<node id="142"/>
			<node id="154"/>
			<node id="166"/>
			<node id="170"/>
			<node id="171"/>
			<node id="172"/>
<!-- ... 21 like lines cut -->
		</NodeSet>
		<NodeSet name="FixedDisplacement03">
			<node id="170"/>
			<node id="171"/>
			<node id="172"/>
			<node id="173"/>
			<node id="174"/>
			<node id="175"/>
			<node id="176"/>
			<node id="177"/>
			<node id="178"/>
			<node id="179"/>
			<node id="180"/>
			<node id="181"/>
			<node id="182"/>
			<node id="183"/>
			<node id="184"/>
			<node id="185"/>
			<node id="186"/>
			<node id="187"/>
			<node id="188"/>
			<node id="189"/>
<!-- ... 4 like lines cut -->
		</NodeSet>
		<Surface name="surface01">
			<quad4 id="1">     1,     8,     9,     2</quad4>
			<quad4 id="2">     8,    15,    16,     9</quad4>
			<quad4 id="3">    15,    22,    23,    16</quad4>
			<quad4 id="4">    22,    29,    30,    23</quad4>
			<quad4 id="5">    29,    36,    37,    30</quad4>
			<quad4 id="6">    36,    43,    44,    37</quad4>
			<quad4 id="7">     2,     9,    10,     3</quad4>
			<quad4 id="8">     9,    16,    17,    10</quad4>
			<quad4 id="9">    16,    23,    24,    17</quad4>
			<quad4 id="10">    23,    30,    31,    24</quad4>
			<quad4 id="11">    30,    37,    38,    31</quad4>
			<quad4 id="12">    37,    44,    45,    38</quad4>
			<quad4 id="13">     3,    10,    11,     4</quad4>
			<quad4 id="14">    10,    17,    18,    11</quad4>
			<quad4 id="15">    17,    24,    25,    18</quad4>
			<quad4 id="16">    24,    31,    32,    25</quad4>
			<quad4 id="17">    31,    38,    39,    32</quad4>
			<quad4 id="18">    38,    45,    46,    39</quad4>
			<quad4 id="19">     4,    11,    12,     5</quad4>
			<quad4 id="20">    11,    18,    19,    12</quad4>
<!-- ... 160 like lines cut -->
		</Surface>
		<ElementSet name="unnamed_set01">
			<elem id="22"/>
		</ElementSet>
	</Geometry>
	<MeshData>
		<ElementData var="shell thickness" elem_set="Part41">
			<elem lid="1">0.01,0.01,0.01,0.01</elem>
			<elem lid="2">0.01,0.01,0.01,0.01</elem>
			<elem lid="3">0.01,0.01,0.01,0.01</elem>
			<elem lid="4">0.01,0.01,0.01,0.01</elem>
			<elem lid="5">0.01,0.01,0.01,0.01</elem>
			<elem lid="6">0.01,0.01,0.01,0.01</elem>
			<elem lid="7">0.01,0.01,0.01,0.01</elem>
			<elem lid="8">0.01,0.01,0.01,0.01</elem>
			<elem lid="9">0.01,0.01,0.01,0.01</elem>
			<elem lid="10">0.01,0.01,0.01,0.01</elem>
			<elem lid="11">0.01,0.01,0.01,0.01</elem>
			<elem lid="12">0.01,0.01,0.01,0.01</elem>
			<elem lid="13">0.01,0.01,0.01,0.01</elem>
			<elem lid="14">0.01,0.01,0.01,0.01</elem>
			<elem lid="15">0.01,0.01,0.01,0.01</elem>
			<elem lid="16">0.01,0.01,0.01,0.01</elem>
			<elem lid="17">0.01,0.01,0.01,0.01</elem>
			<elem lid="18">0.01,0.01,0.01,0.01</elem>
			<elem lid="19">0.01,0.01,0.01,0.01</elem>
			<elem lid="20">0.01,0.01,0.01,0.01</elem>
<!-- ... 160 like lines cut -->
		</ElementData>
	</MeshData>
	<Boundary>
		<fix bc="sy" node_set="FixedShellDisplacement01"/>
		<fix bc="y" node_set="FixedDisplacement01"/>
		<fix bc="sx" node_set="FixedShellDisplacement02"/>
		<fix bc="x" node_set="FixedDisplacement02"/>
		<fix bc="z" node_set="FixedDisplacement03"/>
	</Boundary>
	<Loads>
		<surface_load type="pressure" surface="surface01">
			<pressure lc="1">1</pressure>
			<linear>0</linear>
		</surface_load>
	</Loads>
	<LoadData>
		<loadcurve id="1" type="smooth">
			<point>0,0</point>
			<point>0.1,-5e-5</point>
			<point>1,-5e-3</point>
		</loadcurve>
	</LoadData>
	<Output>
		<plotfile type="febio"/>
		<logfile>
			<element_data data="sx" elem_set="unnamed_set01"/>
		</logfile>
	</Output>
</febio_spec>
