<?xml version="1.0" encoding="ISO-8859-1"?>
<!--
Problem Description:
	Shell constrained on edges is compressed by rigid box element.
	Rigid box is prescribed z dispalcement of -2 at t=1.
Main Features:
	q4ans shells
	sliding-elastic contact
Secondary Features:
Materials:
	neo-Hookean
Degrees of Freedom: 3757
Results
	Steps Completed: 10
	Equilibrium Iterations: 34
	Right Hand Evaluations: 44
	Siffness Reformations: 34
	Other:
		The maximum effective stress is 0.0284 units at time t=1.
Comments:
-->
<febio_spec version="2.5">
	<Module type="solid"/>
	<Control>
		<time_steps>10</time_steps>
		<step_size>0.1</step_size>
		<max_refs>15</max_refs>
		<max_ups>0</max_ups>
		<diverge_reform>1</diverge_reform>
		<reform_each_time_step>1</reform_each_time_step>
		<dtol>0.001</dtol>
		<etol>0.01</etol>
		<rtol>0</rtol>
		<lstol>0.9</lstol>
		<min_residual>1e-020</min_residual>
		<qnmethod>0</qnmethod>
		<time_stepper>
			<dtmin>0.01</dtmin>
			<dtmax>0.1</dtmax>
			<max_retries>5</max_retries>
			<opt_iter>10</opt_iter>
		</time_stepper>
		<analysis type="static"/>
		<symmetric_stiffness>0</symmetric_stiffness>
	</Control>
	<Globals>
		<Constants>
			<T>293</T>
			<R>0.008314</R>
			<Fc>0.0965</Fc>
		</Constants>
	</Globals>
	<Material>
		<material id="1" name="mat1" type="neo-Hookean">
			<density>1</density>
			<E>1</E>
			<v>0</v>
		</material>
		<material id="2" name="mat2" type="rigid body">
			<density>1</density>
		</material>
	</Material>
	<Geometry>
		<Nodes name="sh28">
			<node id="1">-2.5000000e+000,-2.5000000e+000, 0.0000000e+000</node>
			<node id="2">-2.5000000e+000,-2.3000000e+000, 0.0000000e+000</node>
			<node id="3">-2.5000000e+000,-2.1000000e+000, 0.0000000e+000</node>
			<node id="4">-2.5000000e+000,-1.9000000e+000, 0.0000000e+000</node>
			<node id="5">-2.5000000e+000,-1.7000000e+000, 0.0000000e+000</node>
			<node id="6">-2.5000000e+000,-1.5000000e+000, 0.0000000e+000</node>
			<node id="7">-2.5000000e+000,-1.3000000e+000, 0.0000000e+000</node>
			<node id="8">-2.5000000e+000,-1.1000000e+000, 0.0000000e+000</node>
			<node id="9">-2.5000000e+000,-9.0000000e-001, 0.0000000e+000</node>
			<node id="10">-2.5000000e+000,-7.0000000e-001, 0.0000000e+000</node>
			<node id="11">-2.5000000e+000,-5.0000000e-001, 0.0000000e+000</node>
			<node id="12">-2.5000000e+000,-3.0000000e-001, 0.0000000e+000</node>
			<node id="13">-2.5000000e+000,-1.0000000e-001, 0.0000000e+000</node>
			<node id="14">-2.5000000e+000, 1.0000000e-001, 0.0000000e+000</node>
			<node id="15">-2.5000000e+000, 3.0000000e-001, 0.0000000e+000</node>
			<node id="16">-2.5000000e+000, 5.0000000e-001, 0.0000000e+000</node>
			<node id="17">-2.5000000e+000, 7.0000000e-001, 0.0000000e+000</node>
			<node id="18">-2.5000000e+000, 9.0000000e-001, 0.0000000e+000</node>
			<node id="19">-2.5000000e+000, 1.1000000e+000, 0.0000000e+000</node>
			<node id="20">-2.5000000e+000, 1.3000000e+000, 0.0000000e+000</node>
<!-- ... 664 like lines cut -->
		</Nodes>
		<Elements type="q4ans" mat="1" name="Part3">
			<elem id="1">     1,    27,    28,     2</elem>
			<elem id="2">     2,    28,    29,     3</elem>
			<elem id="3">     3,    29,    30,     4</elem>
			<elem id="4">     4,    30,    31,     5</elem>
			<elem id="5">     5,    31,    32,     6</elem>
			<elem id="6">     6,    32,    33,     7</elem>
			<elem id="7">     7,    33,    34,     8</elem>
			<elem id="8">     8,    34,    35,     9</elem>
			<elem id="9">     9,    35,    36,    10</elem>
			<elem id="10">    10,    36,    37,    11</elem>
			<elem id="11">    11,    37,    38,    12</elem>
			<elem id="12">    12,    38,    39,    13</elem>
			<elem id="13">    13,    39,    40,    14</elem>
			<elem id="14">    14,    40,    41,    15</elem>
			<elem id="15">    15,    41,    42,    16</elem>
			<elem id="16">    16,    42,    43,    17</elem>
			<elem id="17">    17,    43,    44,    18</elem>
			<elem id="18">    18,    44,    45,    19</elem>
			<elem id="19">    19,    45,    46,    20</elem>
			<elem id="20">    20,    46,    47,    21</elem>
<!-- ... 605 like lines cut -->
		</Elements>
		<Elements type="hex8" mat="2" name="Part6">
			<elem id="626">   677,   681,   683,   679,   678,   682,   684,   680</elem>
		</Elements>
		<NodeSet name="patch-x">
			<node id="1"/>
			<node id="2"/>
			<node id="3"/>
			<node id="4"/>
			<node id="5"/>
			<node id="6"/>
			<node id="7"/>
			<node id="8"/>
			<node id="9"/>
			<node id="10"/>
			<node id="11"/>
			<node id="12"/>
			<node id="13"/>
			<node id="14"/>
			<node id="15"/>
			<node id="16"/>
			<node id="17"/>
			<node id="18"/>
			<node id="19"/>
			<node id="20"/>
<!-- ... 6 like lines cut -->
		</NodeSet>
		<NodeSet name="patchx">
			<node id="651"/>
			<node id="652"/>
			<node id="653"/>
			<node id="654"/>
			<node id="655"/>
			<node id="656"/>
			<node id="657"/>
			<node id="658"/>
			<node id="659"/>
			<node id="660"/>
			<node id="661"/>
			<node id="662"/>
			<node id="663"/>
			<node id="664"/>
			<node id="665"/>
			<node id="666"/>
			<node id="667"/>
			<node id="668"/>
			<node id="669"/>
			<node id="670"/>
<!-- ... 6 like lines cut -->
		</NodeSet>
		<NodeSet name="patch-y">
			<node id="1"/>
			<node id="27"/>
			<node id="53"/>
			<node id="79"/>
			<node id="105"/>
			<node id="131"/>
			<node id="157"/>
			<node id="183"/>
			<node id="209"/>
			<node id="235"/>
			<node id="261"/>
			<node id="287"/>
			<node id="313"/>
			<node id="339"/>
			<node id="365"/>
			<node id="391"/>
			<node id="417"/>
			<node id="443"/>
			<node id="469"/>
			<node id="495"/>
<!-- ... 6 like lines cut -->
		</NodeSet>
		<NodeSet name="patchy">
			<node id="26"/>
			<node id="52"/>
			<node id="78"/>
			<node id="104"/>
			<node id="130"/>
			<node id="156"/>
			<node id="182"/>
			<node id="208"/>
			<node id="234"/>
			<node id="260"/>
			<node id="286"/>
			<node id="312"/>
			<node id="338"/>
			<node id="364"/>
			<node id="390"/>
			<node id="416"/>
			<node id="442"/>
			<node id="468"/>
			<node id="494"/>
			<node id="520"/>
<!-- ... 6 like lines cut -->
		</NodeSet>
		<Surface name="SecondarySurface01">
			<quad4 id="1">   679,   683,   681,   677</quad4>
		</Surface>
		<Surface name="PrimarySurface01">
			<quad4 id="1">     1,    27,    28,     2</quad4>
			<quad4 id="2">     2,    28,    29,     3</quad4>
			<quad4 id="3">     3,    29,    30,     4</quad4>
			<quad4 id="4">     4,    30,    31,     5</quad4>
			<quad4 id="5">     5,    31,    32,     6</quad4>
			<quad4 id="6">     6,    32,    33,     7</quad4>
			<quad4 id="7">     7,    33,    34,     8</quad4>
			<quad4 id="8">     8,    34,    35,     9</quad4>
			<quad4 id="9">     9,    35,    36,    10</quad4>
			<quad4 id="10">    10,    36,    37,    11</quad4>
			<quad4 id="11">    11,    37,    38,    12</quad4>
			<quad4 id="12">    12,    38,    39,    13</quad4>
			<quad4 id="13">    13,    39,    40,    14</quad4>
			<quad4 id="14">    14,    40,    41,    15</quad4>
			<quad4 id="15">    15,    41,    42,    16</quad4>
			<quad4 id="16">    16,    42,    43,    17</quad4>
			<quad4 id="17">    17,    43,    44,    18</quad4>
			<quad4 id="18">    18,    44,    45,    19</quad4>
			<quad4 id="19">    19,    45,    46,    20</quad4>
			<quad4 id="20">    20,    46,    47,    21</quad4>
<!-- ... 605 like lines cut -->
		</Surface>
		<ElementSet name="unnamed_set01">
			<elem id="213"/>
		</ElementSet>
		<SurfacePair name="TCInterface01">
			<master surface="SecondarySurface01"/>
			<slave surface="PrimarySurface01"/>
		</SurfacePair>
	</Geometry>
	<MeshData>
		<ElementData var="shell thickness" elem_set="Part3">
			<elem lid="1">0.01,0.01,0.01,0.01</elem>
			<elem lid="2">0.01,0.01,0.01,0.01</elem>
			<elem lid="3">0.01,0.01,0.01,0.01</elem>
			<elem lid="4">0.01,0.01,0.01,0.01</elem>
			<elem lid="5">0.01,0.01,0.01,0.01</elem>
			<elem lid="6">0.01,0.01,0.01,0.01</elem>
			<elem lid="7">0.01,0.01,0.01,0.01</elem>
			<elem lid="8">0.01,0.01,0.01,0.01</elem>
			<elem lid="9">0.01,0.01,0.01,0.01</elem>
			<elem lid="10">0.01,0.01,0.01,0.01</elem>
			<elem lid="11">0.01,0.01,0.01,0.01</elem>
			<elem lid="12">0.01,0.01,0.01,0.01</elem>
			<elem lid="13">0.01,0.01,0.01,0.01</elem>
			<elem lid="14">0.01,0.01,0.01,0.01</elem>
			<elem lid="15">0.01,0.01,0.01,0.01</elem>
			<elem lid="16">0.01,0.01,0.01,0.01</elem>
			<elem lid="17">0.01,0.01,0.01,0.01</elem>
			<elem lid="18">0.01,0.01,0.01,0.01</elem>
			<elem lid="19">0.01,0.01,0.01,0.01</elem>
			<elem lid="20">0.01,0.01,0.01,0.01</elem>
<!-- ... 605 like lines cut -->
		</ElementData>
	</MeshData>
	<Boundary>
		<fix bc="x,y,z" node_set="patch-x"/>
		<fix bc="x,y,z" node_set="patchx"/>
		<fix bc="x,y,z" node_set="patch-y"/>
		<fix bc="x,y,z" node_set="patchy"/>
		<rigid_body mat="2">
			<prescribed bc="z" lc="1">1</prescribed>
		</rigid_body>
		<rigid_body mat="2">
			<fixed bc="x"/>
			<fixed bc="y"/>
			<fixed bc="Rx"/>
			<fixed bc="Ry"/>
			<fixed bc="Rz"/>
		</rigid_body>
	</Boundary>
	<Contact>
		<contact type="sliding-elastic" name="TCInterface01" surface_pair="TCInterface01">
			<laugon>0</laugon>
			<tolerance>0.01</tolerance>
			<gaptol>0</gaptol>
			<penalty>0.01</penalty>
			<auto_penalty>0</auto_penalty>
			<two_pass>1</two_pass>
			<search_tol>0.01</search_tol>
			<symmetric_stiffness>0</symmetric_stiffness>
			<search_radius>1</search_radius>
			<seg_up>0</seg_up>
			<tension>0</tension>
			<minaug>0</minaug>
			<maxaug>10</maxaug>
			<fric_coeff>0</fric_coeff>
			<smooth_aug>0</smooth_aug>
			<node_reloc>0</node_reloc>
		</contact>
	</Contact>
	<LoadData>
		<loadcurve id="1" type="linear">
			<point>0,0</point>
			<point>0.1,-1.5</point>
			<point>1,-2</point>
		</loadcurve>
	</LoadData>
	<Output>
		<plotfile type="febio">
			<var type="contact gap"/>
			<var type="contact pressure"/>
			<var type="displacement"/>
			<var type="relative volume"/>
			<var type="shell director"/>
			<var type="shell strain"/>
			<var type="stress"/>
		</plotfile>
		<logfile>
			<element_data data="sx" elem_set="unnamed_set01"/>
		</logfile>
	</Output>
</febio_spec>
