<?xml version="1.0" encoding="ISO-8859-1"?>
<febio_spec version="2.5">
	<Module type="solid"/>
	<Control>
		<time_steps>10</time_steps>
		<step_size>0.1</step_size>
		<max_refs>15</max_refs>
		<max_ups>10</max_ups>
		<diverge_reform>1</diverge_reform>
		<reform_each_time_step>1</reform_each_time_step>
		<dtol>0.001</dtol>
		<etol>0.01</etol>
		<rtol>0</rtol>
		<lstol>0.9</lstol>
		<min_residual>1e-020</min_residual>
		<qnmethod>0</qnmethod>
		<time_stepper>
			<dtmin>0.01</dtmin>
			<dtmax>0.1</dtmax>
			<max_retries>5</max_retries>
			<opt_iter>10</opt_iter>
		</time_stepper>
		<analysis type="static"/>
		<integration>
			<rule elem="tet4" type="UT4">
			<alpha>0.2</alpha>
			<iso_stab>1</iso_stab>
			</rule>
		</integration>
	</Control>
	<Globals>
		<Constants>
			<T>0</T>
			<R>0</R>
			<Fc>0</Fc>
		</Constants>
	</Globals>
	<Material>
		<material id="1" name="Material2" type="Mooney-Rivlin">
			<density>5e-007</density>
			<c1>40.12</c1>
			<c2>0</c2>
			<k>40094</k>
		</material>
	</Material>
	<Geometry>
		<Nodes name="te04">
			<node id="1"> 0.0000000e+000, 0.0000000e+000, 0.0000000e+000</node>
			<node id="2"> 4.8000000e+001, 4.4000000e+001, 0.0000000e+000</node>
			<node id="3"> 4.8000000e+001, 6.0000000e+001, 0.0000000e+000</node>
			<node id="4"> 0.0000000e+000, 4.4000000e+001, 0.0000000e+000</node>
			<node id="5"> 0.0000000e+000, 0.0000000e+000, 1.0000000e+000</node>
			<node id="6"> 4.8000000e+001, 4.4000000e+001, 1.0000000e+000</node>
			<node id="7"> 4.8000000e+001, 6.0000000e+001, 1.0000000e+000</node>
			<node id="8"> 0.0000000e+000, 4.4000000e+001, 1.0000000e+000</node>
			<node id="9"> 2.4000000e+001, 2.2000000e+001, 0.0000000e+000</node>
			<node id="10"> 2.4000000e+001, 2.2000000e+001, 1.0000000e+000</node>
			<node id="11"> 2.4000000e+001, 5.2000000e+001, 0.0000000e+000</node>
			<node id="12"> 2.4000000e+001, 5.2000000e+001, 1.0000000e+000</node>
			<node id="13"> 3.6000000e+001, 5.6000000e+001, 0.0000000e+000</node>
			<node id="14"> 3.6000000e+001, 5.6000000e+001, 1.0000000e+000</node>
			<node id="15"> 0.0000000e+000, 2.2000000e+001, 1.0000000e+000</node>
			<node id="16"> 1.2000000e+001, 1.1000000e+001, 1.0000000e+000</node>
			<node id="17"> 1.2000000e+001, 1.1000000e+001, 0.0000000e+000</node>
			<node id="18"> 0.0000000e+000, 2.2000000e+001, 0.0000000e+000</node>
			<node id="19"> 3.6000000e+001, 3.3000000e+001, 1.0000000e+000</node>
			<node id="20"> 3.6000000e+001, 3.3000000e+001, 0.0000000e+000</node>
<!-- ... 2293 like lines cut -->
		</Nodes>
		<Elements type="tet4" mat="1" name="Part6">
			<elem id="1">   396,  1598,   460,  1599</elem>
			<elem id="2">   400,  1577,   399,  1578</elem>
			<elem id="3">   848,  1783,   979,  2196</elem>
			<elem id="4">   383,  1553,   278,  1554</elem>
			<elem id="5">  1191,  1328,  1264,  1988</elem>
			<elem id="6">   107,   190,   155,  1505</elem>
			<elem id="7">   376,  1507,    99,  1508</elem>
			<elem id="8">   192,   379,   275,   380</elem>
			<elem id="9">   406,   502,   140,  1634</elem>
			<elem id="10">   385,  1570,    69,  1651</elem>
			<elem id="11">   406,  1579,   502,  1581</elem>
			<elem id="12">   168,   171,   116,   238</elem>
			<elem id="13">   734,  1718,   633,  1719</elem>
			<elem id="14">  1290,  2000,  1999,  2002</elem>
			<elem id="15">   733,  1670,   646,  1671</elem>
			<elem id="16">   409,  1546,   219,  1548</elem>
			<elem id="17">    61,  1530,   161,  1531</elem>
			<elem id="18">    26,   337,   236,  1513</elem>
			<elem id="19">    93,   188,   153,  1497</elem>
			<elem id="20">   210,   229,   105,   260</elem>
<!-- ... 6935 like lines cut -->
		</Elements>
		<NodeSet name="FixedDisplacement01">
			<node id="1"/>
			<node id="4"/>
			<node id="5"/>
			<node id="8"/>
			<node id="15"/>
			<node id="18"/>
			<node id="25"/>
			<node id="27"/>
			<node id="36"/>
			<node id="37"/>
			<node id="42"/>
			<node id="43"/>
			<node id="48"/>
			<node id="49"/>
			<node id="66"/>
			<node id="67"/>
			<node id="71"/>
			<node id="72"/>
			<node id="109"/>
			<node id="110"/>
<!-- ... 46 like lines cut -->
		</NodeSet>
		<NodeSet name="FixedDisplacement02">
			<node id="1"/>
			<node id="4"/>
			<node id="5"/>
			<node id="8"/>
			<node id="15"/>
			<node id="18"/>
			<node id="25"/>
			<node id="27"/>
			<node id="36"/>
			<node id="37"/>
			<node id="42"/>
			<node id="43"/>
			<node id="48"/>
			<node id="49"/>
			<node id="66"/>
			<node id="67"/>
			<node id="71"/>
			<node id="72"/>
			<node id="109"/>
			<node id="110"/>
<!-- ... 46 like lines cut -->
		</NodeSet>
		<NodeSet name="FixedDisplacement03">
			<node id="1"/>
			<node id="2"/>
			<node id="3"/>
			<node id="4"/>
			<node id="5"/>
			<node id="6"/>
			<node id="7"/>
			<node id="8"/>
			<node id="9"/>
			<node id="10"/>
			<node id="11"/>
			<node id="12"/>
			<node id="13"/>
			<node id="14"/>
			<node id="15"/>
			<node id="16"/>
			<node id="17"/>
			<node id="18"/>
			<node id="19"/>
			<node id="20"/>
<!-- ... 2293 like lines cut -->
		</NodeSet>
		<Surface name="surface01">
			<tri3 id="1">    23,  2105,  2106</tri3>
			<tri3 id="2">  2119,  1483,  1484</tri3>
			<tri3 id="3">  2101,  1389,  1388</tri3>
			<tri3 id="4">  1432,  1088,  1433</tri3>
			<tri3 id="5">  1297,  1296,  1433</tri3>
			<tri3 id="6">  1453,  1088,  1452</tri3>
			<tri3 id="7">  1340,  1339,  2119</tri3>
			<tri3 id="8">  1389,  1453,  1388</tri3>
			<tri3 id="9">  1297,  2066,  1296</tri3>
			<tri3 id="10">  1453,  1089,  1088</tri3>
			<tri3 id="11">  1433,  1296,  1432</tri3>
			<tri3 id="12">  1433,  1088,  1089</tri3>
			<tri3 id="13">     2,  2066,     6</tri3>
			<tri3 id="14">  1452,  1388,  1453</tri3>
			<tri3 id="15">  1388,  2102,  2101</tri3>
			<tri3 id="16">  2102,    23,  2101</tri3>
			<tri3 id="17">    24,  2105,    23</tri3>
			<tri3 id="18">  1483,  2119,  2120</tri3>
			<tri3 id="19">  2105,  1468,  2106</tri3>
			<tri3 id="20">  2118,     3,  2117</tri3>
<!-- ... 12 like lines cut -->
		</Surface>
		<ElementSet name="unnamed_set01">
			<elem id="3726"/>
		</ElementSet>
	</Geometry>
	<Boundary>
		<fix bc="y" node_set="FixedDisplacement01"/>
		<fix bc="x" node_set="FixedDisplacement02"/>
		<fix bc="z" node_set="FixedDisplacement03"/>
	</Boundary>
	<Loads>
		<surface_load type="traction" surface="surface01">
			<scale lc="1">1</scale>
			<traction>0,1,0</traction>
		</surface_load>
	</Loads>
	<LoadData>
		<loadcurve id="1" type="smooth">
			<point>0,0</point>
			<point>1,50</point>
		</loadcurve>
	</LoadData>
	<Output>
		<plotfile type="febio">
			<var type="displacement"/>
			<var type="stress"/>
		</plotfile>
		<logfile>
			<element_data data="Ey" elem_set="unnamed_set01"/>
		</logfile>
	</Output>
</febio_spec>
