<?xml version="1.0" encoding="ISO-8859-1"?>
<febio_spec version="2.5">
	<Module type="solute"/>
	<Globals>
		<Constants>
			<T>293</T>
			<R>8.314e-006</R>
			<Fc>9.6845e-005</Fc>
		</Constants>
		<Solutes>
			<solute id="1" name="Na">
				<charge_number>1</charge_number>
				<molar_mass>1</molar_mass>
				<density>1</density>
			</solute>
			<solute id="2" name="Cl">
				<charge_number>-1</charge_number>
				<molar_mass>1</molar_mass>
				<density>1</density>
			</solute>
		</Solutes>
	</Globals>
	<Material>
		<material id="1" name="Triphasic" type="triphasic">
			<phi0>0.2</phi0>
			<fixed_charge_density lc="3">1</fixed_charge_density>
			<solid type="neo-Hookean">
				<density>1</density>
				<E>0.3</E>
				<v>0</v>
			</solid>
			<permeability type="perm-const-iso">
				<perm>0.000914</perm>
			</permeability>
			<osmotic_coefficient type="osm-coef-const">
				<osmcoef>1</osmcoef>
			</osmotic_coefficient>
			<solute sol="1">
				<diffusivity type="diff-const-iso">
					<free_diff>0.0005</free_diff>
					<diff>0.0005</diff>
				</diffusivity>
				<solubility type="solub-const">
					<solub>1</solub>
				</solubility>
			</solute>
			<solute sol="2">
				<diffusivity type="diff-const-iso">
					<free_diff>0.0008</free_diff>
					<diff>0.0008</diff>
				</diffusivity>
				<solubility type="solub-const">
					<solub>1</solub>
				</solubility>
			</solute>
		</material>
	</Material>
	<Geometry>
		<Nodes name="tr01">
			<node id="1">-5.0000000e-001,-5.0000000e-001, 0.0000000e+000</node>
			<node id="2">-5.0000000e-001,-5.0000000e-001, 2.6782653e-003</node>
			<node id="3">-5.0000000e-001,-5.0000000e-001, 5.8921838e-003</node>
			<node id="4">-5.0000000e-001,-5.0000000e-001, 9.7488859e-003</node>
			<node id="5">-5.0000000e-001,-5.0000000e-001, 1.4376928e-002</node>
			<node id="6">-5.0000000e-001,-5.0000000e-001, 1.9930579e-002</node>
			<node id="7">-5.0000000e-001,-5.0000000e-001, 2.6594961e-002</node>
			<node id="8">-5.0000000e-001,-5.0000000e-001, 3.4592218e-002</node>
			<node id="9">-5.0000000e-001,-5.0000000e-001, 4.4188927e-002</node>
			<node id="10">-5.0000000e-001,-5.0000000e-001, 5.5704978e-002</node>
			<node id="11">-5.0000000e-001,-5.0000000e-001, 6.9524239e-002</node>
			<node id="12">-5.0000000e-001,-5.0000000e-001, 8.6107352e-002</node>
			<node id="13">-5.0000000e-001,-5.0000000e-001, 1.0600709e-001</node>
			<node id="14">-5.0000000e-001,-5.0000000e-001, 1.2988677e-001</node>
			<node id="15">-5.0000000e-001,-5.0000000e-001, 1.5854239e-001</node>
			<node id="16">-5.0000000e-001,-5.0000000e-001, 1.9292913e-001</node>
			<node id="17">-5.0000000e-001,-5.0000000e-001, 2.3419323e-001</node>
			<node id="18">-5.0000000e-001,-5.0000000e-001, 2.8371014e-001</node>
			<node id="19">-5.0000000e-001,-5.0000000e-001, 3.4313043e-001</node>
			<node id="20">-5.0000000e-001,-5.0000000e-001, 4.1443478e-001</node>
<!-- ... 144 like lines cut -->
		</Nodes>
		<Elements type="hex8" mat="1" name="Part8">
			<elem id="1">     1,    83,   124,    42,     2,    84,   125,    43</elem>
			<elem id="2">     2,    84,   125,    43,     3,    85,   126,    44</elem>
			<elem id="3">     3,    85,   126,    44,     4,    86,   127,    45</elem>
			<elem id="4">     4,    86,   127,    45,     5,    87,   128,    46</elem>
			<elem id="5">     5,    87,   128,    46,     6,    88,   129,    47</elem>
			<elem id="6">     6,    88,   129,    47,     7,    89,   130,    48</elem>
			<elem id="7">     7,    89,   130,    48,     8,    90,   131,    49</elem>
			<elem id="8">     8,    90,   131,    49,     9,    91,   132,    50</elem>
			<elem id="9">     9,    91,   132,    50,    10,    92,   133,    51</elem>
			<elem id="10">    10,    92,   133,    51,    11,    93,   134,    52</elem>
			<elem id="11">    11,    93,   134,    52,    12,    94,   135,    53</elem>
			<elem id="12">    12,    94,   135,    53,    13,    95,   136,    54</elem>
			<elem id="13">    13,    95,   136,    54,    14,    96,   137,    55</elem>
			<elem id="14">    14,    96,   137,    55,    15,    97,   138,    56</elem>
			<elem id="15">    15,    97,   138,    56,    16,    98,   139,    57</elem>
			<elem id="16">    16,    98,   139,    57,    17,    99,   140,    58</elem>
			<elem id="17">    17,    99,   140,    58,    18,   100,   141,    59</elem>
			<elem id="18">    18,   100,   141,    59,    19,   101,   142,    60</elem>
			<elem id="19">    19,   101,   142,    60,    20,   102,   143,    61</elem>
			<elem id="20">    20,   102,   143,    61,    21,   103,   144,    62</elem>
<!-- ... 20 like lines cut -->
		</Elements>
		<NodeSet name="FixedDisplacement01">
			<node id="1"/>
			<node id="2"/>
			<node id="3"/>
			<node id="4"/>
			<node id="5"/>
			<node id="6"/>
			<node id="7"/>
			<node id="8"/>
			<node id="9"/>
			<node id="10"/>
			<node id="11"/>
			<node id="12"/>
			<node id="13"/>
			<node id="14"/>
			<node id="15"/>
			<node id="16"/>
			<node id="17"/>
			<node id="18"/>
			<node id="19"/>
			<node id="20"/>
<!-- ... 144 like lines cut -->
		</NodeSet>
		<NodeSet name="FixedDisplacement02">
			<node id="1"/>
			<node id="2"/>
			<node id="3"/>
			<node id="4"/>
			<node id="5"/>
			<node id="6"/>
			<node id="7"/>
			<node id="8"/>
			<node id="9"/>
			<node id="10"/>
			<node id="11"/>
			<node id="12"/>
			<node id="13"/>
			<node id="14"/>
			<node id="15"/>
			<node id="16"/>
			<node id="17"/>
			<node id="18"/>
			<node id="19"/>
			<node id="20"/>
<!-- ... 144 like lines cut -->
		</NodeSet>
		<NodeSet name="FixedDisplacement03">
			<node id="1"/>
			<node id="42"/>
			<node id="83"/>
			<node id="124"/>
		</NodeSet>
		<NodeSet name="PrescribedBC226">
			<node id="41"/>
			<node id="82"/>
			<node id="123"/>
			<node id="164"/>
		</NodeSet>
		<NodeSet name="PrescribedBC227">
			<node id="41"/>
			<node id="82"/>
			<node id="123"/>
			<node id="164"/>
		</NodeSet>
		<NodeSet name="PrescribedBC228">
			<node id="41"/>
			<node id="82"/>
			<node id="123"/>
			<node id="164"/>
		</NodeSet>
		<NodeSet name="InitialConcentration01">
			<node id="1"/>
			<node id="2"/>
			<node id="3"/>
			<node id="4"/>
			<node id="5"/>
			<node id="6"/>
			<node id="7"/>
			<node id="8"/>
			<node id="9"/>
			<node id="10"/>
			<node id="11"/>
			<node id="12"/>
			<node id="13"/>
			<node id="14"/>
			<node id="15"/>
			<node id="16"/>
			<node id="17"/>
			<node id="18"/>
			<node id="19"/>
			<node id="20"/>
<!-- ... 144 like lines cut -->
		</NodeSet>
		<NodeSet name="InitialConcentration01">
			<node id="1"/>
			<node id="2"/>
			<node id="3"/>
			<node id="4"/>
			<node id="5"/>
			<node id="6"/>
			<node id="7"/>
			<node id="8"/>
			<node id="9"/>
			<node id="10"/>
			<node id="11"/>
			<node id="12"/>
			<node id="13"/>
			<node id="14"/>
			<node id="15"/>
			<node id="16"/>
			<node id="17"/>
			<node id="18"/>
			<node id="19"/>
			<node id="20"/>
<!-- ... 144 like lines cut -->
		</NodeSet>
		<NodeSet name="InitialFluidPressure01">
			<node id="1"/>
			<node id="2"/>
			<node id="3"/>
			<node id="4"/>
			<node id="5"/>
			<node id="6"/>
			<node id="7"/>
			<node id="8"/>
			<node id="9"/>
			<node id="10"/>
			<node id="11"/>
			<node id="12"/>
			<node id="13"/>
			<node id="14"/>
			<node id="15"/>
			<node id="16"/>
			<node id="17"/>
			<node id="18"/>
			<node id="19"/>
			<node id="20"/>
<!-- ... 144 like lines cut -->
		</NodeSet>
		<NodeSet name="PrescribedBC229">
			<node id="41"/>
			<node id="82"/>
			<node id="123"/>
			<node id="164"/>
		</NodeSet>
		<ElementSet name="unnamed_set01">
			<elem id="40"/>
		</ElementSet>
	</Geometry>
	<Boundary>
		<fix bc="x" node_set="FixedDisplacement01"/>
		<fix bc="y" node_set="FixedDisplacement02"/>
		<fix bc="z" node_set="FixedDisplacement03"/>
		<prescribe bc="p" node_set="PrescribedBC226">
			<scale lc="4">1</scale>
			<relative>0</relative>
		</prescribe>
		<prescribe bc="c1" node_set="PrescribedBC227">
			<scale lc="5">1</scale>
			<relative>0</relative>
		</prescribe>
		<prescribe bc="c2" node_set="PrescribedBC228">
			<scale lc="6">1</scale>
			<relative>0</relative>
		</prescribe>
	</Boundary>
	<Initial>
		<init bc="c1" node_set="InitialConcentration01">
			<value>150</value>
		</init>
		<init bc="c2" node_set="InitialConcentration01">
			<value>150</value>
		</init>
		<init bc="p" node_set="InitialFluidPressure01">
			<value>-0.73084</value>
		</init>
	</Initial>
	<LoadData>
		<loadcurve id="1" type="step">
			<point>0,0</point>
			<point>1,1</point>
		</loadcurve>
		<loadcurve id="2" type="step">
			<point>1,20</point>
			<point>101,20</point>
			<point>201,20</point>
			<point>241,20</point>
			<point>2001,20</point>
		</loadcurve>
		<loadcurve id="3" type="linear">
			<point>0,0</point>
			<point>1,-200</point>
		</loadcurve>
		<loadcurve id="4" type="step">
			<point>0,0</point>
			<point>1,-0.73084</point>
		</loadcurve>
		<loadcurve id="5" type="step">
			<point>0,0</point>
			<point>1,150</point>
		</loadcurve>
		<loadcurve id="6" type="step">
			<point>0,0</point>
			<point>1,150</point>
		</loadcurve>
		<loadcurve id="7" type="linear">
			<point>0,0</point>
			<point>1,0</point>
			<point>201,-0.1</point>
		</loadcurve>
	</LoadData>
	<Output>
		<plotfile type="febio">
			<var type="current density"/>
			<var type="displacement"/>
			<var type="stress"/>
			<var type="effective fluid pressure"/>
			<var type="fluid pressure"/>
			<var type="fluid flux"/>
			<var type="effective solute concentration"/>
			<var type="electric potential"/>
			<var type="fixed charge density"/>
			<var type="solute concentration"/>
			<var type="solute flux"/>
		</plotfile>
		<logfile>
			<element_data data="c1" elem_set="unnamed_set01"/>
		</logfile>
	</Output>
	<Step name="Step01">
		<Control>
			<time_steps>10</time_steps>
			<step_size>0.1</step_size>
			<max_refs>15</max_refs>
			<max_ups>0</max_ups>
			<diverge_reform>1</diverge_reform>
			<reform_each_time_step>1</reform_each_time_step>
			<dtol>0.001</dtol>
			<etol>0.01</etol>
			<rtol>0</rtol>
			<ptol>0.01</ptol>
			<ctol>0.01</ctol>
			<lstol>0.9</lstol>
			<min_residual>1e-020</min_residual>
			<qnmethod>1</qnmethod>
			<time_stepper>
				<dtmin>0.01</dtmin>
				<dtmax lc="1"></dtmax>
				<max_retries>5</max_retries>
				<opt_iter>10</opt_iter>
			</time_stepper>
			<analysis type="steady-state"/>
			<symmetric_stiffness>0</symmetric_stiffness>
		</Control>
	</Step>
	<Step name="Step02">
		<Control>
			<time_steps>20000</time_steps>
			<step_size>0.1</step_size>
			<max_refs>15</max_refs>
			<max_ups>0</max_ups>
			<diverge_reform>1</diverge_reform>
			<reform_each_time_step>1</reform_each_time_step>
			<dtol>0.001</dtol>
			<etol>0.01</etol>
			<rtol>0</rtol>
			<ptol>0.01</ptol>
			<ctol>0.01</ctol>
			<lstol>0.9</lstol>
			<min_residual>1e-020</min_residual>
			<qnmethod>1</qnmethod>
			<time_stepper>
				<dtmin>0.01</dtmin>
				<dtmax lc="2"></dtmax>
				<max_retries>5</max_retries>
				<opt_iter>10</opt_iter>
			</time_stepper>
			<symmetric_stiffness>0</symmetric_stiffness>
		</Control>
		<Boundary>
			<prescribe bc="z" node_set="PrescribedBC229">
				<scale lc="7">1</scale>
				<relative>1</relative>
			</prescribe>
		</Boundary>
	</Step>
</febio_spec>
