<?xml version="1.0" encoding="ISO-8859-1"?>
<febio_spec version="2.5">
	<Module type="solid"/>
	<Globals>
		<Constants>
			<T>0</T>
			<R>0</R>
			<Fc>0</Fc>
		</Constants>
	</Globals>
	<Material>
		<material id="1" name="Material1" type="neo-Hookean">
			<density>1</density>
			<E>1</E>
			<v>0</v>
		</material>
	</Material>
	<Geometry>
		<Nodes name="vc02">
			<node id="1"> 5.0000000e-001, 0.0000000e+000, 0.0000000e+000</node>
			<node id="2"> 6.2500000e-001, 0.0000000e+000, 0.0000000e+000</node>
			<node id="3"> 7.5000000e-001, 0.0000000e+000, 0.0000000e+000</node>
			<node id="4"> 8.7500000e-001, 0.0000000e+000, 0.0000000e+000</node>
			<node id="5"> 1.0000000e+000, 0.0000000e+000, 0.0000000e+000</node>
			<node id="6"> 4.9039264e-001, 9.7545159e-002, 0.0000000e+000</node>
			<node id="7"> 6.1299080e-001, 1.2193145e-001, 0.0000000e+000</node>
			<node id="8"> 7.3558896e-001, 1.4631774e-001, 0.0000000e+000</node>
			<node id="9"> 8.5818712e-001, 1.7070403e-001, 0.0000000e+000</node>
			<node id="10"> 9.8078528e-001, 1.9509032e-001, 0.0000000e+000</node>
			<node id="11"> 4.6193977e-001, 1.9134171e-001, 0.0000000e+000</node>
			<node id="12"> 5.7742471e-001, 2.3917714e-001, 0.0000000e+000</node>
			<node id="13"> 6.9290965e-001, 2.8701257e-001, 0.0000000e+000</node>
			<node id="14"> 8.0839459e-001, 3.3484800e-001, 0.0000000e+000</node>
			<node id="15"> 9.2387954e-001, 3.8268343e-001, 0.0000000e+000</node>
			<node id="16"> 4.1573481e-001, 2.7778511e-001, 0.0000000e+000</node>
			<node id="17"> 5.1966851e-001, 3.4723139e-001, 0.0000000e+000</node>
			<node id="18"> 6.2360221e-001, 4.1667767e-001, 0.0000000e+000</node>
			<node id="19"> 7.2753592e-001, 4.8612395e-001, 0.0000000e+000</node>
			<node id="20"> 8.3146962e-001, 5.5557022e-001, 0.0000000e+000</node>
<!-- ... 2448 like lines cut -->
		</Nodes>
		<Elements type="hex8" mat="1" name="Part6">
			<elem id="1">     1,     2,     7,     6,   161,   162,   167,   166</elem>
			<elem id="2">     2,     3,     8,     7,   162,   163,   168,   167</elem>
			<elem id="3">     3,     4,     9,     8,   163,   164,   169,   168</elem>
			<elem id="4">     4,     5,    10,     9,   164,   165,   170,   169</elem>
			<elem id="5">     6,     7,    12,    11,   166,   167,   172,   171</elem>
			<elem id="6">     7,     8,    13,    12,   167,   168,   173,   172</elem>
			<elem id="7">     8,     9,    14,    13,   168,   169,   174,   173</elem>
			<elem id="8">     9,    10,    15,    14,   169,   170,   175,   174</elem>
			<elem id="9">    11,    12,    17,    16,   171,   172,   177,   176</elem>
			<elem id="10">    12,    13,    18,    17,   172,   173,   178,   177</elem>
			<elem id="11">    13,    14,    19,    18,   173,   174,   179,   178</elem>
			<elem id="12">    14,    15,    20,    19,   174,   175,   180,   179</elem>
			<elem id="13">    16,    17,    22,    21,   176,   177,   182,   181</elem>
			<elem id="14">    17,    18,    23,    22,   177,   178,   183,   182</elem>
			<elem id="15">    18,    19,    24,    23,   178,   179,   184,   183</elem>
			<elem id="16">    19,    20,    25,    24,   179,   180,   185,   184</elem>
			<elem id="17">    21,    22,    27,    26,   181,   182,   187,   186</elem>
			<elem id="18">    22,    23,    28,    27,   182,   183,   188,   187</elem>
			<elem id="19">    23,    24,    29,    28,   183,   184,   189,   188</elem>
			<elem id="20">    24,    25,    30,    29,   184,   185,   190,   189</elem>
<!-- ... 1260 like lines cut -->
		</Elements>
		<Elements type="hex8" mat="1" name="Part7">
			<elem id="1281">  1761,  1779,  1905,  1799,  1770,  1784,  1908,  1800</elem>
			<elem id="1282">  1779,  1780,  1906,  1905,  1784,  1783,  1909,  1908</elem>
			<elem id="1283">  1780,  1781,  1907,  1906,  1783,  1782,  1910,  1909</elem>
			<elem id="1284">  1781,  1762,  1785,  1907,  1782,  1771,  1790,  1910</elem>
			<elem id="1285">  1799,  1905,  1902,  1798,  1800,  1908,  1911,  1801</elem>
			<elem id="1286">  1905,  1906,  1903,  1902,  1908,  1909,  1912,  1911</elem>
			<elem id="1287">  1906,  1907,  1904,  1903,  1909,  1910,  1913,  1912</elem>
			<elem id="1288">  1907,  1785,  1786,  1904,  1910,  1790,  1789,  1913</elem>
			<elem id="1289">  1798,  1902,  1899,  1797,  1801,  1911,  1914,  1802</elem>
			<elem id="1290">  1902,  1903,  1900,  1899,  1911,  1912,  1915,  1914</elem>
			<elem id="1291">  1903,  1904,  1901,  1900,  1912,  1913,  1916,  1915</elem>
			<elem id="1292">  1904,  1786,  1787,  1901,  1913,  1789,  1788,  1916</elem>
			<elem id="1293">  1797,  1899,  1793,  1764,  1802,  1914,  1794,  1773</elem>
			<elem id="1294">  1899,  1900,  1792,  1793,  1914,  1915,  1795,  1794</elem>
			<elem id="1295">  1900,  1901,  1791,  1792,  1915,  1916,  1796,  1795</elem>
			<elem id="1296">  1901,  1787,  1765,  1791,  1916,  1788,  1774,  1796</elem>
			<elem id="1297">  1762,  1803,  1923,  1785,  1771,  1808,  1926,  1790</elem>
			<elem id="1298">  1803,  1804,  1924,  1923,  1808,  1807,  1927,  1926</elem>
			<elem id="1299">  1804,  1805,  1925,  1924,  1807,  1806,  1928,  1927</elem>
			<elem id="1300">  1805,  1763,  1809,  1925,  1806,  1772,  1814,  1928</elem>
<!-- ... 172 like lines cut -->
		</Elements>
		<Elements type="hex8" mat="1" name="Part8">
			<elem id="1473">  2115,  2133,  2259,  2153,  2124,  2138,  2262,  2154</elem>
			<elem id="1474">  2133,  2134,  2260,  2259,  2138,  2137,  2263,  2262</elem>
			<elem id="1475">  2134,  2135,  2261,  2260,  2137,  2136,  2264,  2263</elem>
			<elem id="1476">  2135,  2116,  2139,  2261,  2136,  2125,  2144,  2264</elem>
			<elem id="1477">  2153,  2259,  2256,  2152,  2154,  2262,  2265,  2155</elem>
			<elem id="1478">  2259,  2260,  2257,  2256,  2262,  2263,  2266,  2265</elem>
			<elem id="1479">  2260,  2261,  2258,  2257,  2263,  2264,  2267,  2266</elem>
			<elem id="1480">  2261,  2139,  2140,  2258,  2264,  2144,  2143,  2267</elem>
			<elem id="1481">  2152,  2256,  2253,  2151,  2155,  2265,  2268,  2156</elem>
			<elem id="1482">  2256,  2257,  2254,  2253,  2265,  2266,  2269,  2268</elem>
			<elem id="1483">  2257,  2258,  2255,  2254,  2266,  2267,  2270,  2269</elem>
			<elem id="1484">  2258,  2140,  2141,  2255,  2267,  2143,  2142,  2270</elem>
			<elem id="1485">  2151,  2253,  2147,  2118,  2156,  2268,  2148,  2127</elem>
			<elem id="1486">  2253,  2254,  2146,  2147,  2268,  2269,  2149,  2148</elem>
			<elem id="1487">  2254,  2255,  2145,  2146,  2269,  2270,  2150,  2149</elem>
			<elem id="1488">  2255,  2141,  2119,  2145,  2270,  2142,  2128,  2150</elem>
			<elem id="1489">  2116,  2157,  2277,  2139,  2125,  2162,  2280,  2144</elem>
			<elem id="1490">  2157,  2158,  2278,  2277,  2162,  2161,  2281,  2280</elem>
			<elem id="1491">  2158,  2159,  2279,  2278,  2161,  2160,  2282,  2281</elem>
			<elem id="1492">  2159,  2117,  2163,  2279,  2160,  2126,  2168,  2282</elem>
<!-- ... 172 like lines cut -->
		</Elements>
		<NodeSet name="unnamed_set01">
			<node id="1685"/>
		</NodeSet>
		<NodeSet name="FixedDisplacement01">
			<node id="1"/>
			<node id="2"/>
			<node id="3"/>
			<node id="4"/>
			<node id="5"/>
			<node id="6"/>
			<node id="7"/>
			<node id="8"/>
			<node id="9"/>
			<node id="10"/>
			<node id="11"/>
			<node id="12"/>
			<node id="13"/>
			<node id="14"/>
			<node id="15"/>
			<node id="16"/>
			<node id="17"/>
			<node id="18"/>
			<node id="19"/>
			<node id="20"/>
<!-- ... 654 like lines cut -->
		</NodeSet>
		<NodeSet name="PrescribedBC244">
			<node id="1601"/>
			<node id="1602"/>
			<node id="1603"/>
			<node id="1604"/>
			<node id="1605"/>
			<node id="1606"/>
			<node id="1607"/>
			<node id="1608"/>
			<node id="1609"/>
			<node id="1610"/>
			<node id="1611"/>
			<node id="1612"/>
			<node id="1613"/>
			<node id="1614"/>
			<node id="1615"/>
			<node id="1616"/>
			<node id="1617"/>
			<node id="1618"/>
			<node id="1619"/>
			<node id="1620"/>
<!-- ... 654 like lines cut -->
		</NodeSet>
		<NodeSet name="unnamed_set01">
			<node id="1685"/>
		</NodeSet>
		<Surface name="VolumeConstraintSurface01">
			<quad4 id="1">   166,   161,   321,   326</quad4>
			<quad4 id="2">   171,   166,   326,   331</quad4>
			<quad4 id="3">   176,   171,   331,   336</quad4>
			<quad4 id="4">   181,   176,   336,   341</quad4>
			<quad4 id="5">   186,   181,   341,   346</quad4>
			<quad4 id="6">   191,   186,   346,   351</quad4>
			<quad4 id="7">   196,   191,   351,   356</quad4>
			<quad4 id="8">   201,   196,   356,   361</quad4>
			<quad4 id="9">   206,   201,   361,   366</quad4>
			<quad4 id="10">   211,   206,   366,   371</quad4>
			<quad4 id="11">   216,   211,   371,   376</quad4>
			<quad4 id="12">   221,   216,   376,   381</quad4>
			<quad4 id="13">   226,   221,   381,   386</quad4>
			<quad4 id="14">   231,   226,   386,   391</quad4>
			<quad4 id="15">   236,   231,   391,   396</quad4>
			<quad4 id="16">   241,   236,   396,   401</quad4>
			<quad4 id="17">   246,   241,   401,   406</quad4>
			<quad4 id="18">   251,   246,   406,   411</quad4>
			<quad4 id="19">   256,   251,   411,   416</quad4>
			<quad4 id="20">   261,   256,   416,   421</quad4>
<!-- ... 620 like lines cut -->
		</Surface>
	</Geometry>
	<Boundary>
		<fix bc="x,y,z" node_set="FixedDisplacement01"/>
		<prescribe bc="z" node_set="PrescribedBC244">
			<scale lc="1">-0.5</scale>
			<relative>0</relative>
		</prescribe>
	</Boundary>
	<Constraints>
	</Constraints>
	<LoadData>
		<loadcurve id="1" type="linear">
			<point>0,0</point>
			<point>1,0.6</point>
			<point>2,0</point>
		</loadcurve>
	</LoadData>
	<Output>
		<plotfile type="febio">
			<var type="displacement"/>
			<var type="stress"/>
		</plotfile>
		<logfile>
			<node_data data="ux" node_set="unnamed_set01"/>
		</logfile>
	</Output>
	<Step name="Step01">
		<Control>
			<time_steps>10</time_steps>
			<step_size>0.1</step_size>
			<max_refs>15</max_refs>
			<max_ups>10</max_ups>
			<diverge_reform>1</diverge_reform>
			<reform_each_time_step>1</reform_each_time_step>
			<dtol>0.001</dtol>
			<etol>0.01</etol>
			<rtol>0</rtol>
			<lstol>0.9</lstol>
			<min_residual>1e-020</min_residual>
			<qnmethod>0</qnmethod>
			<time_stepper>
				<dtmin>0.01</dtmin>
				<dtmax>0.1</dtmax>
				<max_retries>5</max_retries>
				<opt_iter>10</opt_iter>
			</time_stepper>
			<analysis type="static"/>
		</Control>
		<Constraints>
		</Constraints>
	</Step>
	<Step name="Step02">
		<Control>
			<time_steps>10</time_steps>
			<step_size>0.1</step_size>
			<max_refs>15</max_refs>
			<max_ups>10</max_ups>
			<diverge_reform>1</diverge_reform>
			<reform_each_time_step>1</reform_each_time_step>
			<dtol>0.001</dtol>
			<etol>0.01</etol>
			<rtol>0</rtol>
			<lstol>0.9</lstol>
			<min_residual>1e-020</min_residual>
			<qnmethod>0</qnmethod>
			<time_stepper>
				<dtmin>0.01</dtmin>
				<dtmax>0.1</dtmax>
				<max_retries>5</max_retries>
				<opt_iter>100</opt_iter>
			</time_stepper>
			<analysis type="static"/>
		</Control>
		<Boundary>
		</Boundary>
		<Contact>
		</Contact>
		<Constraints>
			<constraint type="volume" name="VolumeConstraint02" surface="VolumeConstraintSurface01">
				<laugon>1</laugon>
				<augtol>0.01</augtol>
				<penalty>-0.5</penalty>
			</constraint>
		</Constraints>
	</Step>
</febio_spec>
