<?xml version="1.0" encoding="ISO-8859-1"?>
<febio_spec version="4.0">
	<Module type="solid"/>
	<Control>
		<analysis>STATIC</analysis>
		<time_steps>20</time_steps>
		<step_size>0.05</step_size>
		<plot_zero_state>0</plot_zero_state>
		<plot_range>0,-1</plot_range>
		<plot_level>PLOT_MAJOR_ITRS</plot_level>
		<output_level>OUTPUT_MAJOR_ITRS</output_level>
		<plot_stride>1</plot_stride>
		<adaptor_re_solve>1</adaptor_re_solve>
		<solver type="solid">
			<symmetric_stiffness>symmetric</symmetric_stiffness>
			<equation_scheme>staggered</equation_scheme>
			<equation_order>default</equation_order>
			<optimize_bw>0</optimize_bw>
			<lstol>0.9</lstol>
			<lsmin>0.01</lsmin>
			<lsiter>5</lsiter>
			<max_refs>15</max_refs>
			<check_zero_diagonal>0</check_zero_diagonal>
			<zero_diagonal_tol>0</zero_diagonal_tol>
			<force_partition>0</force_partition>
			<reform_each_time_step>1</reform_each_time_step>
			<reform_augment>0</reform_augment>
			<diverge_reform>1</diverge_reform>
			<min_residual>1e-20</min_residual>
			<max_residual>0</max_residual>
			<dtol>0.001</dtol>
			<etol>0.01</etol>
			<rtol>0</rtol>
			<rhoi>0</rhoi>
			<alpha>1</alpha>
			<beta>0.25</beta>
			<gamma>0.5</gamma>
			<logSolve>0</logSolve>
			<arc_length>0</arc_length>
			<arc_length_scale>0</arc_length_scale>
			<qn_method type="BFGS">
				<max_ups>10</max_ups>
				<max_buffer_size>0</max_buffer_size>
				<cycle_buffer>1</cycle_buffer>
				<cmax>100000</cmax>
			</qn_method>
		</solver>
	</Control>
	<Globals>
		<Constants>
			<T>0</T>
			<R>0</R>
			<Fc>0</Fc>
		</Constants>
	</Globals>
	<Material>
		<material id="1" name="Material1" type="neo-Hookean">
			<density>1e-05</density>
			<E>1</E>
			<v>0.4</v>
		</material>
	</Material>
	<Mesh>
		<Nodes name="Object01">
			<node id="1">-1,-0.5,0</node>
			<node id="2">-1,-0.5,0.033333333</node>
			<node id="3">-1,-0.5,0.066666667</node>
			<node id="4">-1,-0.5,0.1</node>
			<node id="5">-1,-0.45,0</node>
			<node id="6">-1,-0.45,0.033333333</node>
			<node id="7">-1,-0.45,0.066666667</node>
			<node id="8">-1,-0.45,0.1</node>
			<node id="9">-1,-0.4,0</node>
			<node id="10">-1,-0.4,0.033333333</node>
			<node id="11">-1,-0.4,0.066666667</node>
			<node id="12">-1,-0.4,0.1</node>
			<node id="13">-1,-0.35,0</node>
			<node id="14">-1,-0.35,0.033333333</node>
			<node id="15">-1,-0.35,0.066666667</node>
			<node id="16">-1,-0.35,0.1</node>
			<node id="17">-1,-0.3,0</node>
			<node id="18">-1,-0.3,0.033333333</node>
			<node id="19">-1,-0.3,0.066666667</node>
			<node id="20">-1,-0.3,0.1</node>
<!-- ... 3424 like lines cut -->
		</Nodes>
		<Elements type="hex8" name="Part1">
			<elem id="1">1,85,89,5,2,86,90,6</elem>
			<elem id="2">2,86,90,6,3,87,91,7</elem>
			<elem id="3">3,87,91,7,4,88,92,8</elem>
			<elem id="4">5,89,93,9,6,90,94,10</elem>
			<elem id="5">6,90,94,10,7,91,95,11</elem>
			<elem id="6">7,91,95,11,8,92,96,12</elem>
			<elem id="7">9,93,97,13,10,94,98,14</elem>
			<elem id="8">10,94,98,14,11,95,99,15</elem>
			<elem id="9">11,95,99,15,12,96,100,16</elem>
			<elem id="10">13,97,101,17,14,98,102,18</elem>
			<elem id="11">14,98,102,18,15,99,103,19</elem>
			<elem id="12">15,99,103,19,16,100,104,20</elem>
			<elem id="13">17,101,105,21,18,102,106,22</elem>
			<elem id="14">18,102,106,22,19,103,107,23</elem>
			<elem id="15">19,103,107,23,20,104,108,24</elem>
			<elem id="16">21,105,109,25,22,106,110,26</elem>
			<elem id="17">22,106,110,26,23,107,111,27</elem>
			<elem id="18">23,107,111,27,24,108,112,28</elem>
			<elem id="19">25,109,113,29,26,110,114,30</elem>
			<elem id="20">26,110,114,30,27,111,115,31</elem>
<!-- ... 2377 like lines cut -->
		</Elements>
		<NodeSet name="FixedDisplacement1">
			1, 2, 3, 4, 5, 6, 7, 8,
			9, 10, 11, 12, 13, 14, 15, 16,
			17, 18, 19, 20, 21, 22, 23, 24,
			25, 26, 27, 28, 29, 30, 31, 32,
			33, 34, 35, 36, 37, 38, 39, 40,
			41, 42, 43, 44, 45, 46, 47, 48,
			49, 50, 51, 52, 53, 54, 55, 56,
			57, 58, 59, 60, 61, 62, 63, 64,
			65, 66, 67, 68, 69, 70, 71, 72,
			73, 74, 75, 76, 77, 78, 79, 80,
			81, 82, 83, 84
		</NodeSet>
		<NodeSet name="FixedDisplacement2">
			3361, 3362, 3363, 3364, 3365, 3366, 3367, 3368,
			3369, 3370, 3371, 3372, 3373, 3374, 3375, 3376,
			3377, 3378, 3379, 3380, 3381, 3382, 3383, 3384,
			3385, 3386, 3387, 3388, 3389, 3390, 3391, 3392,
			3393, 3394, 3395, 3396, 3397, 3398, 3399, 3400,
			3401, 3402, 3403, 3404, 3405, 3406, 3407, 3408,
			3409, 3410, 3411, 3412, 3413, 3414, 3415, 3416,
			3417, 3418, 3419, 3420, 3421, 3422, 3423, 3424,
			3425, 3426, 3427, 3428, 3429, 3430, 3431, 3432,
			3433, 3434, 3435, 3436, 3437, 3438, 3439, 3440,
			3441, 3442, 3443, 3444
		</NodeSet>
		<NodeSet name="PrescribedDisplacement1">
			3361, 3362, 3363, 3364, 3365, 3366, 3367, 3368,
			3369, 3370, 3371, 3372, 3373, 3374, 3375, 3376,
			3377, 3378, 3379, 3380, 3381, 3382, 3383, 3384,
			3385, 3386, 3387, 3388, 3389, 3390, 3391, 3392,
			3393, 3394, 3395, 3396, 3397, 3398, 3399, 3400,
			3401, 3402, 3403, 3404, 3405, 3406, 3407, 3408,
			3409, 3410, 3411, 3412, 3413, 3414, 3415, 3416,
			3417, 3418, 3419, 3420, 3421, 3422, 3423, 3424,
			3425, 3426, 3427, 3428, 3429, 3430, 3431, 3432,
			3433, 3434, 3435, 3436, 3437, 3438, 3439, 3440,
			3441, 3442, 3443, 3444
		</NodeSet>
	</Mesh>
	<MeshDomains>
		<SolidDomain name="Part1" mat="Material1"/>
	</MeshDomains>
	<MeshAdaptor>
		<mesh_adaptor name="MeshAdaptor1" type="erosion">
			<max_iters>1</max_iters>
			<max_elems>3</max_elems>
			<sort>1</sort>
			<remove_islands>0</remove_islands>
			<criterion type="min-max filter">
				<min>0.3</min>
				<max>1e+37</max>
				<clamp>0</clamp>
				<data type="stress">
					<metric>0</metric>
				</data>
			</criterion>
		</mesh_adaptor>
	</MeshAdaptor>
	<Boundary>
		<bc name="FixedDisplacement01" node_set="FixedDisplacement1" type="zero displacement">
			<x_dof>1</x_dof>
			<y_dof>1</y_dof>
			<z_dof>1</z_dof>
		</bc>
		<bc name="FixedDisplacement02" node_set="FixedDisplacement2" type="zero displacement">
			<x_dof>0</x_dof>
			<y_dof>1</y_dof>
			<z_dof>1</z_dof>
		</bc>
		<bc name="PrescribedDisplacement1" node_set="PrescribedDisplacement1" type="prescribed displacement">
			<dof>x</dof>
			<value lc="1">1</value>
			<relative>0</relative>
		</bc>
	</Boundary>
	<LoadData>
		<load_controller id="1" name="LC1" type="loadcurve">
			<interpolate>SMOOTH</interpolate>
			<extend>CONSTANT</extend>
			<points>
				<pt>0,0</pt>
				<pt>1,1</pt>
			</points>
		</load_controller>
	</LoadData>
	<Output>
		<plotfile type="febio">
			<var type="displacement"/>
			<var type="stress"/>
		</plotfile>
	</Output>
</febio_spec>
