<?xml version="1.0" encoding="ISO-8859-1"?>
<febio_spec version="4.0">
	<Module type="solid"/>
	<Control>
		<analysis>DYNAMIC</analysis>
		<time_steps>15</time_steps>
		<!-- <time_steps>22</time_steps> -->
		<step_size>1</step_size>
		<plot_zero_state>0</plot_zero_state>
		<plot_range>0,-1</plot_range>
		<plot_level>PLOT_MAJOR_ITRS</plot_level>
		<output_level>OUTPUT_MAJOR_ITRS</output_level>
		<plot_stride>1</plot_stride>
		<adaptor_re_solve>1</adaptor_re_solve>
		<solver type="solid">
			<symmetric_stiffness>symmetric</symmetric_stiffness>
			<equation_scheme>staggered</equation_scheme>
			<equation_order>default</equation_order>
			<optimize_bw>0</optimize_bw>
			<lstol>0.9</lstol>
			<lsmin>0.01</lsmin>
			<lsiter>5</lsiter>
			<max_refs>15</max_refs>
			<check_zero_diagonal>0</check_zero_diagonal>
			<zero_diagonal_tol>0</zero_diagonal_tol>
			<force_partition>0</force_partition>
			<reform_each_time_step>1</reform_each_time_step>
			<reform_augment>0</reform_augment>
			<diverge_reform>1</diverge_reform>
			<min_residual>1e-20</min_residual>
			<max_residual>0</max_residual>
			<dtol>0.001</dtol>
			<etol>0.01</etol>
			<rtol>0</rtol>
			<rhoi>0</rhoi>
			<alpha>1</alpha>
			<beta>0.25</beta>
			<gamma>0.5</gamma>
			<logSolve>0</logSolve>
			<arc_length>0</arc_length>
			<arc_length_scale>0</arc_length_scale>
			<qn_method type="BFGS">
				<max_ups>10</max_ups>
				<max_buffer_size>0</max_buffer_size>
				<cycle_buffer>1</cycle_buffer>
				<cmax>100000</cmax>
			</qn_method>
		</solver>
	</Control>
	<Globals>
		<Constants>
			<T>0</T>
			<R>0</R>
			<Fc>0</Fc>
		</Constants>
	</Globals>
	<Material>
		<material id="1" name="Material1" type="neo-Hookean">
			<density>100</density>
			<E>1</E>
			<v>0.3</v>
		</material>
		<material id="2" name="bullet" type="rigid body">
			<density>1</density>
			<E>1</E>
			<v>0</v>
			<center_of_mass>-1,0,0</center_of_mass>
		</material>
	</Material>
	<Mesh>
		<Nodes name="Object1">
			<node id="1">-0.05,-5,-5</node>
			<node id="2">-0.05,-5,-4.46132891</node>
			<node id="3">-0.05,-5,-3.97652493</node>
			<node id="4">-0.05,-5,-3.54020135</node>
			<node id="5">-0.05,-5,-3.14751012</node>
			<node id="6">-0.05,-5,-2.79408802</node>
			<node id="7">-0.05,-5,-2.47600813</node>
			<node id="8">-0.05,-5,-2.18973623</node>
			<node id="9">-0.05,-5,-1.93209152</node>
			<node id="10">-0.05,-5,-1.70021128</node>
			<node id="11">-0.05,-5,-1.49151906</node>
			<node id="12">-0.05,-5,-1.30369606</node>
			<node id="13">-0.05,-5,-1.13465537</node>
			<node id="14">-0.05,-5,-0.982518743</node>
			<node id="15">-0.05,-5,-0.84559578</node>
			<node id="16">-0.05,-5,-0.722365113</node>
			<node id="17">-0.05,-5,-0.611457512</node>
			<node id="18">-0.05,-5,-0.511640672</node>
			<node id="19">-0.05,-5,-0.421805516</node>
			<node id="20">-0.05,-5,-0.340953875</node>
<!-- ... 5182 like lines cut -->
		</Nodes>
		<Nodes name="MergedObject2">
			<node id="5203">-1.65066136,0,-0.300000017</node>
			<node id="5204">-1.65066136,0.0469303387,-0.29630652</node>
			<node id="5205">-1.65066136,0.0927050968,-0.285316973</node>
			<node id="5206">-1.65066137,0.136197148,-0.267301976</node>
			<node id="5207">-1.65066137,0.176335573,-0.242705118</node>
			<node id="5208">-1.65066137,0.212132032,-0.212132055</node>
			<node id="5209">-1.65066137,0.242705095,-0.176335597</node>
			<node id="5210">-1.65066137,0.267301955,-0.136197172</node>
			<node id="5211">-1.65066137,0.285316953,-0.0927051219</node>
			<node id="5212">-1.65066137,0.296306501,-0.0469303641</node>
			<node id="5213">-1.65066137,0.3,-2.54728731e-08</node>
			<node id="5214">-1.65066137,0.296306504,0.0469303133</node>
			<node id="5215">-1.65066137,0.285316958,0.0927050717</node>
			<node id="5216">-1.65066138,0.267301962,0.136197123</node>
			<node id="5217">-1.65066138,0.242705105,0.176335549</node>
			<node id="5218">-1.65066138,0.212132043,0.212132008</node>
			<node id="5219">-1.65066138,0.176335586,0.242705073</node>
			<node id="5220">-1.65066138,0.136197162,0.267301934</node>
			<node id="5221">-1.65066138,0.0927051121,0.285316933</node>
			<node id="5222">-1.65066138,0.0469303546,0.296306482</node>
<!-- ... 517 like lines cut -->
		</Nodes>
		<Elements type="hex8" name="Part1">
			<elem id="1">1,2602,2653,52,2,2603,2654,53</elem>
			<elem id="2">2,2603,2654,53,3,2604,2655,54</elem>
			<elem id="3">3,2604,2655,54,4,2605,2656,55</elem>
			<elem id="4">4,2605,2656,55,5,2606,2657,56</elem>
			<elem id="5">5,2606,2657,56,6,2607,2658,57</elem>
			<elem id="6">6,2607,2658,57,7,2608,2659,58</elem>
			<elem id="7">7,2608,2659,58,8,2609,2660,59</elem>
			<elem id="8">8,2609,2660,59,9,2610,2661,60</elem>
			<elem id="9">9,2610,2661,60,10,2611,2662,61</elem>
			<elem id="10">10,2611,2662,61,11,2612,2663,62</elem>
			<elem id="11">11,2612,2663,62,12,2613,2664,63</elem>
			<elem id="12">12,2613,2664,63,13,2614,2665,64</elem>
			<elem id="13">13,2614,2665,64,14,2615,2666,65</elem>
			<elem id="14">14,2615,2666,65,15,2616,2667,66</elem>
			<elem id="15">15,2616,2667,66,16,2617,2668,67</elem>
			<elem id="16">16,2617,2668,67,17,2618,2669,68</elem>
			<elem id="17">17,2618,2669,68,18,2619,2670,69</elem>
			<elem id="18">18,2619,2670,69,19,2620,2671,70</elem>
			<elem id="19">19,2620,2671,70,20,2621,2672,71</elem>
			<elem id="20">20,2621,2672,71,21,2622,2673,72</elem>
<!-- ... 2480 like lines cut -->
		</Elements>
		<Elements type="quad4" name="Part3">
			<elem id="2501">5203,5204,5244,5243</elem>
			<elem id="2502">5204,5205,5245,5244</elem>
			<elem id="2503">5205,5206,5246,5245</elem>
			<elem id="2504">5206,5207,5247,5246</elem>
			<elem id="2505">5207,5208,5248,5247</elem>
			<elem id="2506">5208,5209,5249,5248</elem>
			<elem id="2507">5209,5210,5250,5249</elem>
			<elem id="2508">5210,5211,5251,5250</elem>
			<elem id="2509">5211,5212,5252,5251</elem>
			<elem id="2510">5212,5213,5253,5252</elem>
			<elem id="2511">5213,5214,5254,5253</elem>
			<elem id="2512">5214,5215,5255,5254</elem>
			<elem id="2513">5215,5216,5256,5255</elem>
			<elem id="2514">5216,5217,5257,5256</elem>
			<elem id="2515">5217,5218,5258,5257</elem>
			<elem id="2516">5218,5219,5259,5258</elem>
			<elem id="2517">5219,5220,5260,5259</elem>
			<elem id="2518">5220,5221,5261,5260</elem>
			<elem id="2519">5221,5222,5262,5261</elem>
			<elem id="2520">5222,5223,5263,5262</elem>
<!-- ... 20 like lines cut -->
		</Elements>
		<Elements type="quad4" name="Part5">
			<elem id="2541">5283,5304,5440,5310</elem>
			<elem id="2542">5310,5440,5445,5311</elem>
			<elem id="2543">5311,5445,5450,5312</elem>
			<elem id="2544">5312,5450,5455,5313</elem>
			<elem id="2545">5313,5455,5460,5314</elem>
			<elem id="2546">5314,5460,5324,5291</elem>
			<elem id="2547">5304,5303,5441,5440</elem>
			<elem id="2548">5440,5441,5446,5445</elem>
			<elem id="2549">5445,5446,5451,5450</elem>
			<elem id="2550">5450,5451,5456,5455</elem>
			<elem id="2551">5455,5456,5461,5460</elem>
			<elem id="2552">5460,5461,5323,5324</elem>
			<elem id="2553">5303,5302,5442,5441</elem>
			<elem id="2554">5441,5442,5447,5446</elem>
			<elem id="2555">5446,5447,5452,5451</elem>
			<elem id="2556">5451,5452,5457,5456</elem>
			<elem id="2557">5456,5457,5462,5461</elem>
			<elem id="2558">5461,5462,5322,5323</elem>
			<elem id="2559">5302,5301,5443,5442</elem>
			<elem id="2560">5442,5443,5448,5447</elem>
<!-- ... 412 like lines cut -->
		</Elements>
		<Surface name="FixedDisplacement1">
			<quad4 id="1">1,2602,2603,2</quad4>
			<quad4 id="2">2,2603,2604,3</quad4>
			<quad4 id="3">3,2604,2605,4</quad4>
			<quad4 id="4">4,2605,2606,5</quad4>
			<quad4 id="5">5,2606,2607,6</quad4>
			<quad4 id="6">6,2607,2608,7</quad4>
			<quad4 id="7">7,2608,2609,8</quad4>
			<quad4 id="8">8,2609,2610,9</quad4>
			<quad4 id="9">9,2610,2611,10</quad4>
			<quad4 id="10">10,2611,2612,11</quad4>
			<quad4 id="11">11,2612,2613,12</quad4>
			<quad4 id="12">12,2613,2614,13</quad4>
			<quad4 id="13">13,2614,2615,14</quad4>
			<quad4 id="14">14,2615,2616,15</quad4>
			<quad4 id="15">15,2616,2617,16</quad4>
			<quad4 id="16">16,2617,2618,17</quad4>
			<quad4 id="17">17,2618,2619,18</quad4>
			<quad4 id="18">18,2619,2620,19</quad4>
			<quad4 id="19">19,2620,2621,20</quad4>
			<quad4 id="20">20,2621,2622,21</quad4>
<!-- ... 180 like lines cut -->
		</Surface>
		<Surface name="FacetOnFacetSliding1_primary">
			<quad4 id="1">2551,2500,2501,2552</quad4>
			<quad4 id="2">2552,2501,2502,2553</quad4>
			<quad4 id="3">2553,2502,2503,2554</quad4>
			<quad4 id="4">2554,2503,2504,2555</quad4>
			<quad4 id="5">2555,2504,2505,2556</quad4>
			<quad4 id="6">2556,2505,2506,2557</quad4>
			<quad4 id="7">2557,2506,2507,2558</quad4>
			<quad4 id="8">2558,2507,2508,2559</quad4>
			<quad4 id="9">2559,2508,2509,2560</quad4>
			<quad4 id="10">2560,2509,2510,2561</quad4>
			<quad4 id="11">2561,2510,2511,2562</quad4>
			<quad4 id="12">2562,2511,2512,2563</quad4>
			<quad4 id="13">2563,2512,2513,2564</quad4>
			<quad4 id="14">2564,2513,2514,2565</quad4>
			<quad4 id="15">2565,2514,2515,2566</quad4>
			<quad4 id="16">2566,2515,2516,2567</quad4>
			<quad4 id="17">2567,2516,2517,2568</quad4>
			<quad4 id="18">2568,2517,2518,2569</quad4>
			<quad4 id="19">2569,2518,2519,2570</quad4>
			<quad4 id="20">2570,2519,2520,2571</quad4>
<!-- ... 2480 like lines cut -->
		</Surface>
		<Surface name="FacetOnFacetSliding1_secondary">
			<quad4 id="1">5203,5204,5244,5243</quad4>
			<quad4 id="2">5204,5205,5245,5244</quad4>
			<quad4 id="3">5205,5206,5246,5245</quad4>
			<quad4 id="4">5206,5207,5247,5246</quad4>
			<quad4 id="5">5207,5208,5248,5247</quad4>
			<quad4 id="6">5208,5209,5249,5248</quad4>
			<quad4 id="7">5209,5210,5250,5249</quad4>
			<quad4 id="8">5210,5211,5251,5250</quad4>
			<quad4 id="9">5211,5212,5252,5251</quad4>
			<quad4 id="10">5212,5213,5253,5252</quad4>
			<quad4 id="11">5213,5214,5254,5253</quad4>
			<quad4 id="12">5214,5215,5255,5254</quad4>
			<quad4 id="13">5215,5216,5256,5255</quad4>
			<quad4 id="14">5216,5217,5257,5256</quad4>
			<quad4 id="15">5217,5218,5258,5257</quad4>
			<quad4 id="16">5218,5219,5259,5258</quad4>
			<quad4 id="17">5219,5220,5260,5259</quad4>
			<quad4 id="18">5220,5221,5261,5260</quad4>
			<quad4 id="19">5221,5222,5262,5261</quad4>
			<quad4 id="20">5222,5223,5263,5262</quad4>
<!-- ... 452 like lines cut -->
		</Surface>
		<SurfacePair name="FacetOnFacetSliding1">
			<primary>FacetOnFacetSliding1_primary</primary>
			<secondary>FacetOnFacetSliding1_secondary</secondary>
		</SurfacePair>
	</Mesh>
	<MeshDomains>
		<SolidDomain name="Part1" mat="Material1"/>
		<ShellDomain name="Part3" mat="bullet">
			<shell_thickness>0</shell_thickness>
		</ShellDomain>
		<ShellDomain name="Part5" mat="bullet">
			<shell_thickness>0</shell_thickness>
		</ShellDomain>
	</MeshDomains>
	<MeshData>
		<ElementData type="shell thickness" elem_set="Part3">
			<e lid="1">0.01,0.01,0.01,0.01</e>
			<e lid="2">0.01,0.01,0.01,0.01</e>
			<e lid="3">0.01,0.01,0.01,0.01</e>
			<e lid="4">0.01,0.01,0.01,0.01</e>
			<e lid="5">0.01,0.01,0.01,0.01</e>
			<e lid="6">0.01,0.01,0.01,0.01</e>
			<e lid="7">0.01,0.01,0.01,0.01</e>
			<e lid="8">0.01,0.01,0.01,0.01</e>
			<e lid="9">0.01,0.01,0.01,0.01</e>
			<e lid="10">0.01,0.01,0.01,0.01</e>
			<e lid="11">0.01,0.01,0.01,0.01</e>
			<e lid="12">0.01,0.01,0.01,0.01</e>
			<e lid="13">0.01,0.01,0.01,0.01</e>
			<e lid="14">0.01,0.01,0.01,0.01</e>
			<e lid="15">0.01,0.01,0.01,0.01</e>
			<e lid="16">0.01,0.01,0.01,0.01</e>
			<e lid="17">0.01,0.01,0.01,0.01</e>
			<e lid="18">0.01,0.01,0.01,0.01</e>
			<e lid="19">0.01,0.01,0.01,0.01</e>
			<e lid="20">0.01,0.01,0.01,0.01</e>
<!-- ... 20 like lines cut -->
		</ElementData>
	</MeshData>
	<MeshAdaptor>
		<mesh_adaptor name="MeshAdaptor1" type="erosion">
			<max_iters>1</max_iters>
			<max_elems>0</max_elems>
			<sort>0</sort>
			<remove_islands>0</remove_islands>
			<criterion type="min-max filter">
				<min>1</min>
				<max>1e+37</max>
				<clamp>0</clamp>
				<data type="stress">
					<metric>0</metric>
				</data>
			</criterion>
		</mesh_adaptor>
	</MeshAdaptor>
	<Boundary>
		<bc name="FixedDisplacement1" node_set="@surface:FixedDisplacement1" type="zero displacement">
			<x_dof>1</x_dof>
			<y_dof>1</y_dof>
			<z_dof>1</z_dof>
		</bc>
	</Boundary>
	<Rigid>
		<rigid_bc name="RigidConstraint1" type="rigid_fixed">
			<rb>bullet</rb>
			<Rx_dof>0</Rx_dof>
			<Ry_dof>1</Ry_dof>
			<Rz_dof>1</Rz_dof>
			<Ru_dof>1</Ru_dof>
			<Rv_dof>1</Rv_dof>
			<Rw_dof>1</Rw_dof>
		</rigid_bc>
		<rigid_bc name="RigidConstraint2" type="rigid_displacement">
			<rb>bullet</rb>
			<dof>x</dof>
			<value lc="1">10</value>
			<relative>0</relative>
		</rigid_bc>
	</Rigid>
	<Contact>
		<contact name="FacetOnFacetSliding1" surface_pair="FacetOnFacetSliding1" type="sliding-facet-on-facet">
			<laugon>PENALTY</laugon>
			<penalty>10</penalty>
			<auto_penalty>0</auto_penalty>
			<update_penalty>0</update_penalty>
			<tolerance>0.2</tolerance>
			<two_pass>0</two_pass>
			<gaptol>0</gaptol>
			<minaug>0</minaug>
			<maxaug>10</maxaug>
			<smooth_aug>0</smooth_aug>
			<search_tol>0.01</search_tol>
			<search_radius>0</search_radius>
			<seg_up>0</seg_up>
			<node_reloc>0</node_reloc>
			<knmult>1</knmult>
		</contact>
	</Contact>
	<LoadData>
		<load_controller id="1" name="LC1" type="loadcurve">
			<interpolate>SMOOTH</interpolate>
			<extend>CONSTANT</extend>
			<points>
				<pt>0,0</pt>
				<pt>200,2</pt>
			</points>
		</load_controller>
	</LoadData>
	<Output>
		<plotfile type="febio">
			<var type="displacement"/>
			<var type="relative volume"/>
			<var type="stress"/>
		</plotfile>
	</Output>
</febio_spec>
