<?xml version="1.0" encoding="ISO-8859-1"?>
<febio_spec version="4.0">
	<Module type="solid">
		<units>SI</units>
	</Module>
	<Control>
		<analysis>STATIC</analysis>
		<time_steps>20</time_steps>
		<step_size>0.05</step_size>
		<plot_zero_state>0</plot_zero_state>
		<plot_range>0,-1</plot_range>
		<plot_level>PLOT_MAJOR_ITRS</plot_level>
		<output_level>OUTPUT_MAJOR_ITRS</output_level>
		<plot_stride>1</plot_stride>
		<output_stride>1</output_stride>
		<adaptor_re_solve>1</adaptor_re_solve>
		<solver type="solid">
			<symmetric_stiffness>symmetric</symmetric_stiffness>
			<equation_scheme>staggered</equation_scheme>
			<equation_order>default</equation_order>
			<optimize_bw>0</optimize_bw>
			<lstol>0.9</lstol>
			<lsmin>0.01</lsmin>
			<lsiter>5</lsiter>
			<max_refs>15</max_refs>
			<check_zero_diagonal>0</check_zero_diagonal>
			<zero_diagonal_tol>0</zero_diagonal_tol>
			<force_partition>0</force_partition>
			<reform_each_time_step>1</reform_each_time_step>
			<reform_augment>0</reform_augment>
			<diverge_reform>1</diverge_reform>
			<min_residual>1e-20</min_residual>
			<max_residual>0</max_residual>
			<dtol>0.001</dtol>
			<etol>0.01</etol>
			<rtol>0</rtol>
			<rhoi>-2</rhoi>
			<alpha>1</alpha>
			<beta>0.25</beta>
			<gamma>0.5</gamma>
			<logSolve>0</logSolve>
			<arc_length>0</arc_length>
			<arc_length_scale>0</arc_length_scale>
			<qn_method type="BFGS">
				<max_ups>10</max_ups>
				<max_buffer_size>0</max_buffer_size>
				<cycle_buffer>1</cycle_buffer>
				<cmax>100000</cmax>
			</qn_method>
		</solver>
	</Control>
	<Globals>
		<Constants>
			<T>0</T>
			<P>0</P>
			<R>8.31446</R>
			<Fc>96485.3</Fc>
		</Constants>
	</Globals>
	<Material>
		<material id="1" name="Material1" type="neo-Hookean">
			<density>1</density>
			<E>1</E>
			<v>0</v>
		</material>
		<material id="2" name="Material2" type="rigid body">
			<density>1</density>
			<E>1</E>
			<v>0</v>
		</material>
	</Material>
	<Mesh>
		<Nodes name="Object1">
			<node id="1">-0.5,-0.5,0</node>
			<node id="2">-0.5,-0.5,0.1744474</node>
			<node id="3">0.417381561,0.37231489,0.927653937</node>
			<node id="4">-0.388263263,-0.442777553,0.0478335247</node>
			<node id="5">-0.5,-0.5,0.35513734</node>
			<node id="6">-0.401975362,-0.407108385,0.841922047</node>
			<node id="7">-0.5,-0.5,0.5458</node>
			<node id="8">-0.5,-0.5,0.699619</node>
			<node id="9">-0.124296044,-0.34038844,0</node>
			<node id="10">-0.5,-0.5,0.867681</node>
			<node id="11">-0.5,-0.5,1</node>
			<node id="12">0.478007975,-0.458151372,0.0476954735</node>
			<node id="13">0.415399119,-0.477387588,0.972202115</node>
			<node id="14">0.105060766,-0.3418914,1</node>
			<node id="15">0.358814497,-0.102388562,0.451419748</node>
			<node id="16">-0.184609355,0.249588543,0</node>
			<node id="17">0.420102306,-0.281745149,0</node>
			<node id="18">-0.386331148,-0.388154332,1</node>
			<node id="19">-0.5,-0.365,1</node>
			<node id="20">-0.5,-0.382291678,0.235794715</node>
<!-- ... 397 like lines cut -->
		</Nodes>
		<Nodes name="Object2">
			<node id="418">-0.125,-0.125,1.1</node>
			<node id="419">0.125,-0.125,1.1</node>
			<node id="420">0.125,0.125,1.1</node>
			<node id="421">-0.125,0.125,1.1</node>
			<node id="422">-0.125,-0.125,1.35</node>
			<node id="423">0.125,-0.125,1.35</node>
			<node id="424">0.125,0.125,1.35</node>
			<node id="425">-0.125,0.125,1.35</node>
		</Nodes>
		<Elements type="tet4" name="Part1">
			<elem id="1">73,84,205,215</elem>
			<elem id="2">330,123,356,158</elem>
			<elem id="3">401,375,354,377</elem>
			<elem id="4">29,187,38,51</elem>
			<elem id="5">373,376,235,314</elem>
			<elem id="6">16,158,320,414</elem>
			<elem id="7">53,244,283,54</elem>
			<elem id="8">69,262,207,63</elem>
			<elem id="9">77,198,176,172</elem>
			<elem id="10">58,26,273,318</elem>
			<elem id="11">69,63,283,68</elem>
			<elem id="12">178,323,147,296</elem>
			<elem id="13">2,62,366,122</elem>
			<elem id="14">33,133,361,85</elem>
			<elem id="15">386,396,119,112</elem>
			<elem id="16">401,66,375,397</elem>
			<elem id="17">410,71,174,49</elem>
			<elem id="18">297,328,265,216</elem>
			<elem id="19">247,245,282,281</elem>
			<elem id="20">20,181,191,190</elem>
<!-- ... 1712 like lines cut -->
		</Elements>
		<Elements type="hex8" name="Part2">
			<elem id="1733">418,419,420,421,422,423,424,425</elem>
		</Elements>
		<Surface name="ZeroDisplacement1">
			<tri3 id="1">247,282,245</tri3>
			<tri3 id="2">1,214,122</tri3>
			<tri3 id="3">350,405,9</tri3>
			<tri3 id="4">309,17,286</tri3>
			<tri3 id="5">347,392,368</tri3>
			<tri3 id="6">132,45,298</tri3>
			<tri3 id="7">1,23,214</tri3>
			<tri3 id="8">245,279,231</tri3>
			<tri3 id="9">264,289,286</tri3>
			<tri3 id="10">264,286,257</tri3>
			<tri3 id="11">257,17,247</tri3>
			<tri3 id="12">364,155,9</tri3>
			<tri3 id="13">188,320,415</tri3>
			<tri3 id="14">231,81,226</tri3>
			<tri3 id="15">17,309,282</tri3>
			<tri3 id="16">339,309,286</tri3>
			<tri3 id="17">194,81,302</tri3>
			<tri3 id="18">279,302,231</tri3>
			<tri3 id="19">122,155,364</tri3>
			<tri3 id="20">81,295,226</tri3>
<!-- ... 55 like lines cut -->
		</Surface>
		<Surface name="SlidingElastic1Primary">
			<tri3 id="1">77,176,198</tri3>
			<tri3 id="2">413,369,386</tri3>
			<tri3 id="3">287,258,197</tri3>
			<tri3 id="4">284,352,110</tri3>
			<tri3 id="5">239,274,133</tri3>
			<tri3 id="6">258,248,197</tri3>
			<tri3 id="7">11,18,19</tri3>
			<tri3 id="8">386,378,293</tri3>
			<tri3 id="9">386,119,378</tri3>
			<tri3 id="10">248,239,133</tri3>
			<tri3 id="11">11,253,18</tri3>
			<tri3 id="12">329,93,395</tri3>
			<tri3 id="13">110,242,121</tri3>
			<tri3 id="14">19,408,44</tri3>
			<tri3 id="15">119,316,358</tri3>
			<tri3 id="16">329,307,133</tri3>
			<tri3 id="17">326,274,138</tri3>
			<tri3 id="18">239,232,274</tri3>
			<tri3 id="19">345,138,316</tri3>
			<tri3 id="20">329,326,93</tri3>
<!-- ... 53 like lines cut -->
		</Surface>
		<Surface name="SlidingElastic1Secondary">
			<quad4 id="1">418,419,423,422</quad4>
			<quad4 id="2">419,420,424,423</quad4>
			<quad4 id="3">420,421,425,424</quad4>
			<quad4 id="4">421,418,422,425</quad4>
			<quad4 id="5">421,420,419,418</quad4>
			<quad4 id="6">422,423,424,425</quad4>
		</Surface>
		<SurfacePair name="SlidingElastic1">
			<primary>SlidingElastic1Primary</primary>
			<secondary>SlidingElastic1Secondary</secondary>
		</SurfacePair>
	</Mesh>
	<MeshDomains>
		<SolidDomain name="Part1" mat="Material1"/>
		<SolidDomain name="Part2" mat="Material2"/>
	</MeshDomains>
	<MeshAdaptor>
		<mesh_adaptor name="MeshAdaptor1" type="erosion">
			<max_iters>3</max_iters>
			<max_elems>0</max_elems>
			<sort>0</sort>
			<remove_islands>0</remove_islands>
			<erode_surfaces>2</erode_surfaces>
			<criterion type="contact gap">
				<gap>0</gap>
			</criterion>
		</mesh_adaptor>
	</MeshAdaptor>
	<Boundary>
		<bc name="ZeroDisplacement1" node_set="@surface:ZeroDisplacement1" type="zero displacement">
			<x_dof>1</x_dof>
			<y_dof>1</y_dof>
			<z_dof>1</z_dof>
		</bc>
	</Boundary>
	<Rigid>
		<rigid_bc name="RigidConstraint1" type="rigid_fixed">
			<rb>Material2</rb>
			<Rx_dof>1</Rx_dof>
			<Ry_dof>1</Ry_dof>
			<Rz_dof>0</Rz_dof>
			<Ru_dof>1</Ru_dof>
			<Rv_dof>1</Rv_dof>
			<Rw_dof>1</Rw_dof>
		</rigid_bc>
		<rigid_bc name="RigidConstraint2" type="rigid_displacement">
			<rb>Material2</rb>
			<dof>z</dof>
			<value lc="1">-1.5</value>
			<relative>0</relative>
		</rigid_bc>
	</Rigid>
	<Contact>
		<contact name="SlidingElastic1" surface_pair="SlidingElastic1" type="sliding-facet-on-facet">
			<laugon>PENALTY</laugon>
			<penalty>0</penalty>
			<auto_penalty>0</auto_penalty>
			<update_penalty>0</update_penalty>
			<tolerance>0.1</tolerance>
			<two_pass>0</two_pass>
			<gaptol>0</gaptol>
			<minaug>0</minaug>
			<maxaug>10</maxaug>
			<smooth_aug>0</smooth_aug>
			<search_tol>0.01</search_tol>
			<search_radius>1</search_radius>
			<seg_up>0</seg_up>
			<node_reloc>0</node_reloc>
			<knmult>1</knmult>
		</contact>
	</Contact>
	<LoadData>
		<load_controller id="1" name="LC1" type="loadcurve">
			<interpolate>LINEAR</interpolate>
			<extend>CONSTANT</extend>
			<points>
				<pt>0,0</pt>
				<pt>1,1</pt>
			</points>
		</load_controller>
	</LoadData>
	<Output>
		<plotfile type="febio">
			<var type="displacement"/>
			<var type="stress"/>
			<var type="relative volume"/>
			<var type="contact pressure"/>
			<var type="contact gap"/>
		</plotfile>
	</Output>
</febio_spec>
