<?xml version="1.0" encoding="ISO-8859-1"?>
<!--
This file uses a centrifugal body force.

Final displacement of node 1281: 1.07771, 0, -0.377276
-->
<febio_spec version="2.5">
	<Module type="solid"/>
	<Control>
		<time_steps>10</time_steps>
		<step_size>0.1</step_size>
		<max_refs>15</max_refs>
		<max_ups>10</max_ups>
		<diverge_reform>1</diverge_reform>
		<reform_each_time_step>1</reform_each_time_step>
		<dtol>0.001</dtol>
		<etol>0.01</etol>
		<rtol>0</rtol>
		<lstol>0.9</lstol>
		<min_residual>1e-20</min_residual>
		<qnmethod>0</qnmethod>
		<rhoi>0</rhoi>
		<time_stepper>
			<dtmin>0.01</dtmin>
			<dtmax>0.1</dtmax>
			<max_retries>5</max_retries>
			<opt_iter>10</opt_iter>
		</time_stepper>
		<analysis type="static"/>
	</Control>
	<Globals>
		<Constants>
			<T>0</T>
			<R>0</R>
			<Fc>0</Fc>
		</Constants>
	</Globals>
	<Material>
		<material id="1" name="Material1" type="neo-Hookean">
			<density>1</density>
			<E>10</E>
			<v>0.3</v>
		</material>
	</Material>
	<Geometry>
		<Nodes name="Object01">
			<node id="1">  5.0000000e-01,  0.0000000e+00,  0.0000000e+00</node>
			<node id="2">  6.2500000e-01,  0.0000000e+00,  0.0000000e+00</node>
			<node id="3">  7.5000000e-01,  0.0000000e+00,  0.0000000e+00</node>
			<node id="4">  8.7500000e-01,  0.0000000e+00,  0.0000000e+00</node>
			<node id="5">  1.0000000e+00,  0.0000000e+00,  0.0000000e+00</node>
			<node id="6">  4.9039264e-01,  9.7545159e-02,  0.0000000e+00</node>
			<node id="7">  6.1299080e-01,  1.2193145e-01,  0.0000000e+00</node>
			<node id="8">  7.3558896e-01,  1.4631774e-01,  0.0000000e+00</node>
			<node id="9">  8.5818712e-01,  1.7070403e-01,  0.0000000e+00</node>
			<node id="10">  9.8078528e-01,  1.9509032e-01,  0.0000000e+00</node>
			<node id="11">  4.6193977e-01,  1.9134171e-01,  0.0000000e+00</node>
			<node id="12">  5.7742471e-01,  2.3917714e-01,  0.0000000e+00</node>
			<node id="13">  6.9290965e-01,  2.8701257e-01,  0.0000000e+00</node>
			<node id="14">  8.0839459e-01,  3.3484800e-01,  0.0000000e+00</node>
			<node id="15">  9.2387954e-01,  3.8268343e-01,  0.0000000e+00</node>
			<node id="16">  4.1573481e-01,  2.7778511e-01,  0.0000000e+00</node>
			<node id="17">  5.1966851e-01,  3.4723139e-01,  0.0000000e+00</node>
			<node id="18">  6.2360221e-01,  4.1667767e-01,  0.0000000e+00</node>
			<node id="19">  7.2753592e-01,  4.8612395e-01,  0.0000000e+00</node>
			<node id="20">  8.3146962e-01,  5.5557022e-01,  0.0000000e+00</node>
<!-- ... 1420 like lines cut -->
		</Nodes>
		<Elements type="hex8" mat="1" name="Part1">
			<elem id="1">     1,     2,     7,     6,   161,   162,   167,   166</elem>
			<elem id="2">     2,     3,     8,     7,   162,   163,   168,   167</elem>
			<elem id="3">     3,     4,     9,     8,   163,   164,   169,   168</elem>
			<elem id="4">     4,     5,    10,     9,   164,   165,   170,   169</elem>
			<elem id="5">     6,     7,    12,    11,   166,   167,   172,   171</elem>
			<elem id="6">     7,     8,    13,    12,   167,   168,   173,   172</elem>
			<elem id="7">     8,     9,    14,    13,   168,   169,   174,   173</elem>
			<elem id="8">     9,    10,    15,    14,   169,   170,   175,   174</elem>
			<elem id="9">    11,    12,    17,    16,   171,   172,   177,   176</elem>
			<elem id="10">    12,    13,    18,    17,   172,   173,   178,   177</elem>
			<elem id="11">    13,    14,    19,    18,   173,   174,   179,   178</elem>
			<elem id="12">    14,    15,    20,    19,   174,   175,   180,   179</elem>
			<elem id="13">    16,    17,    22,    21,   176,   177,   182,   181</elem>
			<elem id="14">    17,    18,    23,    22,   177,   178,   183,   182</elem>
			<elem id="15">    18,    19,    24,    23,   178,   179,   184,   183</elem>
			<elem id="16">    19,    20,    25,    24,   179,   180,   185,   184</elem>
			<elem id="17">    21,    22,    27,    26,   181,   182,   187,   186</elem>
			<elem id="18">    22,    23,    28,    27,   182,   183,   188,   187</elem>
			<elem id="19">    23,    24,    29,    28,   183,   184,   189,   188</elem>
			<elem id="20">    24,    25,    30,    29,   184,   185,   190,   189</elem>
<!-- ... 1004 like lines cut -->
		</Elements>
		<NodeSet name="FixedDisplacement1">
			<node id="1"/>
			<node id="2"/>
			<node id="3"/>
			<node id="4"/>
			<node id="5"/>
			<node id="6"/>
			<node id="7"/>
			<node id="8"/>
			<node id="9"/>
			<node id="10"/>
			<node id="11"/>
			<node id="12"/>
			<node id="13"/>
			<node id="14"/>
			<node id="15"/>
			<node id="16"/>
			<node id="17"/>
			<node id="18"/>
			<node id="19"/>
			<node id="20"/>
<!-- ... 140 like lines cut -->
		</NodeSet>
	</Geometry>
	<Boundary>
		<fix bc="x,y,z" node_set="FixedDisplacement1"/>
	</Boundary>
	<Loads>
		<body_load type="centrifugal">
			<angular_speed lc="1">3</angular_speed>
			<rotation_axis>0,0,1</rotation_axis>
			<rotation_center>0,0,0</rotation_center>
		</body_load>
	</Loads>
	<LoadData>
		<loadcurve id="1" type="smooth">
			<point>0,0</point>
			<point>1,1</point>
		</loadcurve>
	</LoadData>
	<Output>
		<plotfile type="febio">
			<var type="displacement"/>
			<var type="stress"/>
		</plotfile>
	</Output>
</febio_spec>
