<?xml version="1.0" encoding="ISO-8859-1"?>
<!--
This file was created with FEBio Studio version 1.0.0 



BFSI Taylor slip problem that models Couette flow over a rigid porous layer. Tangential velocity prescribed on top of fluid layer, with no slip wall at bottom of porous domain, where an interface is shared between the two. 0 pressure and displacement throughout.

Similar examples seen in results of
   Shim JJ, Maas SA, Weiss JA, Ateshian GA. (2021) J Biomech Eng, In Press.
-->

<!--
Problem Description:
	BFSI Taylor slip problem that models Couette flow over a rigid porous layer. Tangential velocity prescribed on top of fluid layer, with no slip wall at bottom of porous domain, where an interface is shared between the two. 0 pressure and displacement throughout.
Main Features:
	BFSI
	porous solid
	permeability
	tangential velocity
Secondary Features:
	Broyden
	no ref each step
	no diverge reform
	Newtonian fluid
	PostBL
Materials:
	NeoHookean
	Poroelastic
	Newtonian
	Constant Permeability
Degrees of Freedom: 5664
Results:
	Steps Completed: 20
	Equilibrium Iterations: 50
	Right Hand Evaluations: 80
	Siffness Reformations: 1
	Other:
		The x-nodal flux for node 220 at time t=2 is 0.834029
Comments:
	Similar examples seen in results of
       Shim JJ, Maas SA, Weiss JA, Ateshian GA. (2021) J Biomech Eng, In Press.
-->
<febio_spec version="3.0">
	<Module type="fluid-FSI"/>
	<Control>
		<analysis>DYNAMIC</analysis>
		<time_steps>20</time_steps>
		<step_size>0.1</step_size>
		<solver>
			<max_refs>5</max_refs>
			<max_ups>50</max_ups>
			<diverge_reform>0</diverge_reform>
			<reform_each_time_step>0</reform_each_time_step>
			<dtol>0</dtol>
			<vtol>0.001</vtol>
			<ftol>0</ftol>
			<etol>0.01</etol>
			<rtol>0.001</rtol>
			<lstol>0.9</lstol>
			<min_residual>1e-29</min_residual>
			<max_residual>1e+20</max_residual>
			<rhoi>0</rhoi>
			<qnmethod>BROYDEN</qnmethod>
		</solver>
		<time_stepper>
			<dtmin>0.01</dtmin>
			<dtmax>0.1</dtmax>
			<max_retries>9</max_retries>
			<opt_iter>50</opt_iter>
		</time_stepper>
	</Control>
	<Globals>
		<Constants>
			<T>0</T>
			<R>0</R>
			<Fc>0</Fc>
		</Constants>
	</Globals>
	<Material>
		<material id="1" name="Material1" type="biphasic-FSI">
			<phi0>0</phi0>
			<fluid type="fluid">
				<density>0</density>
				<k>1e+12</k>
				<viscous type="Newtonian fluid">
					<mu>1</mu>
					<kappa>0</kappa>
				</viscous>
			</fluid>
			<solid type="neo-Hookean">
				<density>0</density>
				<E>1e-09</E>
				<v>0</v>
			</solid>
			<permeability type="perm-const-iso">
				<perm>0</perm>
			</permeability>
		</material>
		<material id="2" name="Material2" type="biphasic-FSI">
			<phi0>0.5</phi0>
			<fluid type="fluid">
				<density>0</density>
				<k>1e+12</k>
				<viscous type="Newtonian fluid">
					<mu>0.25</mu>
					<kappa>0</kappa>
				</viscous>
			</fluid>
			<solid type="neo-Hookean">
				<density>0</density>
				<E>6.75e+09</E>
				<v>0.125</v>
			</solid>
			<permeability type="perm-const-iso">
				<perm>1</perm>
			</permeability>
		</material>
	</Material>
	<Mesh>
		<Nodes name="Object01">
			<node id="1">-0.5,0.025,0</node>
			<node id="2">-0.5,0.025,0.1</node>
			<node id="3">-0.5,0.05,0</node>
			<node id="4">-0.5,0.05,0.1</node>
			<node id="5">-0.5,0.075,0</node>
			<node id="6">-0.5,0.075,0.1</node>
			<node id="7">-0.5,0.1,0</node>
			<node id="8">-0.5,0.1,0.1</node>
			<node id="9">-0.5,0.125,0</node>
			<node id="10">-0.5,0.125,0.1</node>
			<node id="11">-0.5,0.15,0</node>
			<node id="12">-0.5,0.15,0.1</node>
			<node id="13">-0.5,0.175,0</node>
			<node id="14">-0.5,0.175,0.1</node>
			<node id="15">-0.5,0.2,0</node>
			<node id="16">-0.5,0.2,0.1</node>
			<node id="17">-0.5,0.225,0</node>
			<node id="18">-0.5,0.225,0.1</node>
			<node id="19">-0.5,0.25,0</node>
			<node id="20">-0.5,0.25,0.1</node>
<!-- ... 2038 like lines cut -->
		</Nodes>
		<Elements type="hex8" name="Part3">
			<elem id="1">689,21,23,1,690,22,24,2</elem>
			<elem id="2">1,23,25,3,2,24,26,4</elem>
			<elem id="3">3,25,27,5,4,26,28,6</elem>
			<elem id="4">5,27,29,7,6,28,30,8</elem>
			<elem id="5">7,29,31,9,8,30,32,10</elem>
			<elem id="6">9,31,33,11,10,32,34,12</elem>
			<elem id="7">11,33,35,13,12,34,36,14</elem>
			<elem id="8">13,35,37,15,14,36,38,16</elem>
			<elem id="9">15,37,39,17,16,38,40,18</elem>
			<elem id="10">21,43,45,23,22,44,46,24</elem>
			<elem id="11">23,45,47,25,24,46,48,26</elem>
			<elem id="12">25,47,49,27,26,48,50,28</elem>
			<elem id="13">27,49,51,29,28,50,52,30</elem>
			<elem id="14">29,51,53,31,30,52,54,32</elem>
			<elem id="15">31,53,55,33,32,54,56,34</elem>
			<elem id="16">33,55,57,35,34,56,58,36</elem>
			<elem id="17">35,57,59,37,36,58,60,38</elem>
			<elem id="18">37,59,61,39,38,60,62,40</elem>
			<elem id="19">43,65,67,45,44,66,68,46</elem>
			<elem id="20">45,67,69,47,46,68,70,48</elem>
<!-- ... 260 like lines cut -->
		</Elements>
		<Elements type="hex8" name="Part4">
			<elem id="281">631,693,695,633,632,694,696,634</elem>
			<elem id="282">633,695,697,635,634,696,698,636</elem>
			<elem id="283">635,697,699,637,636,698,700,638</elem>
			<elem id="284">637,699,701,639,638,700,702,640</elem>
			<elem id="285">639,701,703,641,640,702,704,642</elem>
			<elem id="286">641,703,705,643,642,704,706,644</elem>
			<elem id="287">643,705,707,645,644,706,708,646</elem>
			<elem id="288">645,707,709,647,646,708,710,648</elem>
			<elem id="289">647,709,711,649,648,710,712,650</elem>
			<elem id="290">649,711,713,651,650,712,714,652</elem>
			<elem id="291">651,713,715,653,652,714,716,654</elem>
			<elem id="292">653,715,717,655,654,716,718,656</elem>
			<elem id="293">655,717,719,657,656,718,720,658</elem>
			<elem id="294">657,719,721,659,658,720,722,660</elem>
			<elem id="295">659,721,723,661,660,722,724,662</elem>
			<elem id="296">661,723,725,663,662,724,726,664</elem>
			<elem id="297">663,725,727,665,664,726,728,666</elem>
			<elem id="298">665,727,729,667,666,728,730,668</elem>
			<elem id="299">667,729,731,669,668,730,732,670</elem>
			<elem id="300">669,731,733,671,670,732,734,672</elem>
<!-- ... 660 like lines cut -->
		</Elements>
		<NodeSet name="FixedFluidVelocity1">
			<n id="629"/>
			<n id="630"/>
			<n id="691"/>
			<n id="692"/>
			<n id="751"/>
			<n id="752"/>
			<n id="811"/>
			<n id="812"/>
			<n id="871"/>
			<n id="872"/>
			<n id="931"/>
			<n id="932"/>
			<n id="991"/>
			<n id="992"/>
			<n id="1051"/>
			<n id="1052"/>
			<n id="1111"/>
			<n id="1112"/>
			<n id="1171"/>
			<n id="1172"/>
<!-- ... 22 like lines cut -->
		</NodeSet>
		<NodeSet name="FixedFluidVelocity2">
			<n id="1"/>
			<n id="2"/>
			<n id="3"/>
			<n id="4"/>
			<n id="5"/>
			<n id="6"/>
			<n id="7"/>
			<n id="8"/>
			<n id="9"/>
			<n id="10"/>
			<n id="11"/>
			<n id="12"/>
			<n id="13"/>
			<n id="14"/>
			<n id="15"/>
			<n id="16"/>
			<n id="17"/>
			<n id="18"/>
			<n id="19"/>
			<n id="20"/>
<!-- ... 2038 like lines cut -->
		</NodeSet>
		<NodeSet name="FixedFluidVelocity3">
			<n id="1"/>
			<n id="2"/>
			<n id="3"/>
			<n id="4"/>
			<n id="5"/>
			<n id="6"/>
			<n id="7"/>
			<n id="8"/>
			<n id="9"/>
			<n id="10"/>
			<n id="11"/>
			<n id="12"/>
			<n id="13"/>
			<n id="14"/>
			<n id="15"/>
			<n id="16"/>
			<n id="17"/>
			<n id="18"/>
			<n id="19"/>
			<n id="20"/>
<!-- ... 176 like lines cut -->
		</NodeSet>
		<NodeSet name="FixedFluidDilatation1">
			<n id="1"/>
			<n id="2"/>
			<n id="3"/>
			<n id="4"/>
			<n id="5"/>
			<n id="6"/>
			<n id="7"/>
			<n id="8"/>
			<n id="9"/>
			<n id="10"/>
			<n id="11"/>
			<n id="12"/>
			<n id="13"/>
			<n id="14"/>
			<n id="15"/>
			<n id="16"/>
			<n id="17"/>
			<n id="18"/>
			<n id="19"/>
			<n id="20"/>
<!-- ... 176 like lines cut -->
		</NodeSet>
		<NodeSet name="FixedFluidVelocity4">
			<n id="19"/>
			<n id="20"/>
			<n id="41"/>
			<n id="42"/>
			<n id="63"/>
			<n id="64"/>
			<n id="85"/>
			<n id="86"/>
			<n id="107"/>
			<n id="108"/>
			<n id="129"/>
			<n id="130"/>
			<n id="151"/>
			<n id="152"/>
			<n id="173"/>
			<n id="174"/>
			<n id="195"/>
			<n id="196"/>
			<n id="217"/>
			<n id="218"/>
<!-- ... 22 like lines cut -->
		</NodeSet>
		<NodeSet name="FixedDisplacement1">
			<n id="1"/>
			<n id="2"/>
			<n id="3"/>
			<n id="4"/>
			<n id="5"/>
			<n id="6"/>
			<n id="7"/>
			<n id="8"/>
			<n id="9"/>
			<n id="10"/>
			<n id="11"/>
			<n id="12"/>
			<n id="13"/>
			<n id="14"/>
			<n id="15"/>
			<n id="16"/>
			<n id="17"/>
			<n id="18"/>
			<n id="19"/>
			<n id="20"/>
<!-- ... 2038 like lines cut -->
		</NodeSet>
		<NodeSet name="PrescribedFluidVelocity1">
			<n id="19"/>
			<n id="20"/>
			<n id="41"/>
			<n id="42"/>
			<n id="63"/>
			<n id="64"/>
			<n id="85"/>
			<n id="86"/>
			<n id="107"/>
			<n id="108"/>
			<n id="129"/>
			<n id="130"/>
			<n id="151"/>
			<n id="152"/>
			<n id="173"/>
			<n id="174"/>
			<n id="195"/>
			<n id="196"/>
			<n id="217"/>
			<n id="218"/>
<!-- ... 22 like lines cut -->
		</NodeSet>
	</Mesh>
	<MeshDomains>
		<SolidDomain name="Part3" mat="Material1"/>
		<SolidDomain name="Part4" mat="Material2"/>
	</MeshDomains>
	<Boundary>
		<bc name="FixedFluidVelocity01" type="fix" node_set="FixedFluidVelocity1">
			<dofs>wx,wy,wz</dofs>
		</bc>
		<bc name="FixedFluidVelocity02" type="fix" node_set="FixedFluidVelocity2">
			<dofs>wz</dofs>
		</bc>
		<bc name="FixedFluidVelocity03" type="fix" node_set="FixedFluidVelocity3">
			<dofs>wy,wz</dofs>
		</bc>
		<bc name="FixedFluidDilatation01" type="fix" node_set="FixedFluidDilatation1">
			<dofs>ef</dofs>
		</bc>
		<bc name="FixedFluidVelocity04" type="fix" node_set="FixedFluidVelocity4">
			<dofs>wy,wz</dofs>
		</bc>
		<bc name="FixedDisplacement01" type="fix" node_set="FixedDisplacement1">
			<dofs>x,y,z</dofs>
		</bc>
		<bc name="PrescribedFluidVelocity1" type="prescribe" node_set="PrescribedFluidVelocity1">
			<dof>wx</dof>
			<scale lc="1">1</scale>
			<relative>0</relative>
		</bc>
	</Boundary>
	<LoadData>
		<load_controller id="1" type="loadcurve">
			<interpolate>SMOOTH</interpolate>
			<points>
				<point>0,0</point>
				<point>1,1</point>
			</points>
		</load_controller>
	</LoadData>
	<Output>
		<plotfile type="febio">
			<var type="acceleration"/>
			<var type="displacement"/>
			<var type="velocity"/>
			<var type="fluid pressure"/>
			<var type="fluid acceleration"/>
			<var type="fluid dilatation"/>
			<var type="fluid rate of deformation"/>
			<var type="fluid stress"/>
			<var type="fluid velocity"/>
			<var type="fluid volume ratio"/>
			<var type="fluid vorticity"/>
			<var type="nodal fluid velocity"/>
			<var type="fluid flux"/>
			<var type="nodal fluid flux"/>
		</plotfile>
	</Output>
</febio_spec>
