<?xml version="1.0" encoding="ISO-8859-1"?>
<!--
BFSI Taylor slip problem that models Couette flow over a rigid porous layer. Tangential velocity prescribed on top of fluid layer, with no slip wall at bottom of porous domain, where an interface is shared between the two. 0 pressure and displacement throughout. Tet4

Similar examples seen in results of
   Shim JJ, Maas SA, Weiss JA, Ateshian GA. (2021) J Biomech Eng, In Press.
-->
<febio_spec version="3.0">
	<Module type="fluid-FSI"/>
	<Control>
		<analysis>DYNAMIC</analysis>
		<time_steps>10</time_steps>
		<step_size>0.1</step_size>
		<solver>
			<max_refs>5</max_refs>
			<max_ups>50</max_ups>
			<diverge_reform>0</diverge_reform>
			<reform_each_time_step>0</reform_each_time_step>
			<dtol>0</dtol>
			<vtol>0.001</vtol>
			<ftol>0</ftol>
			<etol>0.01</etol>
			<rtol>0.001</rtol>
			<lstol>0.9</lstol>
			<min_residual>1e-29</min_residual>
			<max_residual>1e+20</max_residual>
			<rhoi>0</rhoi>
			<qnmethod>BROYDEN</qnmethod>
		</solver>
		<time_stepper>
			<dtmin>0.01</dtmin>
			<dtmax>0.1</dtmax>
			<max_retries>9</max_retries>
			<opt_iter>50</opt_iter>
		</time_stepper>
	</Control>
	<Globals>
		<Constants>
			<T>0</T>
			<R>0</R>
			<Fc>0</Fc>
		</Constants>
	</Globals>
	<Material>
		<material id="1" name="Material1" type="biphasic-FSI">
			<phi0>0</phi0>
			<fluid type="fluid">
				<density>0</density>
				<k>1e+12</k>
				<viscous type="Newtonian fluid">
					<mu>1</mu>
					<kappa>0</kappa>
				</viscous>
			</fluid>
			<solid type="neo-Hookean">
				<density>0</density>
				<E>1e-09</E>
				<v>0</v>
			</solid>
			<permeability type="perm-const-iso">
				<perm>0</perm>
			</permeability>
		</material>
		<material id="2" name="Material2" type="biphasic-FSI">
			<phi0>0.5</phi0>
			<fluid type="fluid">
				<density>0</density>
				<k>1e+12</k>
				<viscous type="Newtonian fluid">
					<mu>0.25</mu>
					<kappa>0</kappa>
				</viscous>
			</fluid>
			<solid type="neo-Hookean">
				<density>0</density>
				<E>6.75e+09</E>
				<v>0.125</v>
			</solid>
			<permeability type="perm-const-iso">
				<perm>1</perm>
			</permeability>
		</material>
	</Material>
	<Mesh>
		<Nodes name="Object01">
			<node id="1">-0.5,0.025,0</node>
			<node id="2">-0.5,0.025,0.1</node>
			<node id="3">-0.5,0.05,0</node>
			<node id="4">-0.5,0.05,0.1</node>
			<node id="5">-0.5,0.075,0</node>
			<node id="6">-0.5,0.075,0.1</node>
			<node id="7">-0.5,0.1,0</node>
			<node id="8">-0.5,0.1,0.1</node>
			<node id="9">-0.5,0.125,0</node>
			<node id="10">-0.5,0.125,0.1</node>
			<node id="11">-0.5,0.15,0</node>
			<node id="12">-0.5,0.15,0.1</node>
			<node id="13">-0.5,0.175,0</node>
			<node id="14">-0.5,0.175,0.1</node>
			<node id="15">-0.5,0.2,0</node>
			<node id="16">-0.5,0.2,0.1</node>
			<node id="17">-0.5,0.225,0</node>
			<node id="18">-0.5,0.225,0.1</node>
			<node id="19">-0.5,0.25,0</node>
			<node id="20">-0.5,0.25,0.1</node>
<!-- ... 2038 like lines cut -->
		</Nodes>
		<Elements type="tet4" name="Part3">
			<elem id="1">1,689,21,690</elem>
			<elem id="2">1,21,23,24</elem>
			<elem id="3">1,21,22,690</elem>
			<elem id="4">1,690,22,2</elem>
			<elem id="5">1,22,24,2</elem>
			<elem id="6">1,22,21,24</elem>
			<elem id="7">1,23,26,24</elem>
			<elem id="8">1,26,23,25</elem>
			<elem id="9">1,24,26,2</elem>
			<elem id="10">1,26,4,2</elem>
			<elem id="11">1,26,25,3</elem>
			<elem id="12">1,26,3,4</elem>
			<elem id="13">3,25,28,26</elem>
			<elem id="14">3,28,25,27</elem>
			<elem id="15">3,26,28,4</elem>
			<elem id="16">3,28,6,4</elem>
			<elem id="17">3,28,27,5</elem>
			<elem id="18">3,28,5,6</elem>
			<elem id="19">5,27,30,28</elem>
			<elem id="20">5,30,27,29</elem>
<!-- ... 1660 like lines cut -->
		</Elements>
		<Elements type="tet4" name="Part4">
			<elem id="1681">631,693,696,694</elem>
			<elem id="1682">631,696,693,695</elem>
			<elem id="1683">631,694,696,632</elem>
			<elem id="1684">631,696,634,632</elem>
			<elem id="1685">631,696,695,633</elem>
			<elem id="1686">631,696,633,634</elem>
			<elem id="1687">633,695,698,696</elem>
			<elem id="1688">633,698,695,697</elem>
			<elem id="1689">633,696,698,634</elem>
			<elem id="1690">633,698,636,634</elem>
			<elem id="1691">633,698,697,635</elem>
			<elem id="1692">633,698,635,636</elem>
			<elem id="1693">635,697,700,698</elem>
			<elem id="1694">635,700,697,699</elem>
			<elem id="1695">635,698,700,636</elem>
			<elem id="1696">635,700,638,636</elem>
			<elem id="1697">635,700,699,637</elem>
			<elem id="1698">635,700,637,638</elem>
			<elem id="1699">637,699,702,700</elem>
			<elem id="1700">637,702,699,701</elem>
<!-- ... 4060 like lines cut -->
		</Elements>
		<Surface name="FixedFluidVelocity01">
			<tri3 id="1">629,691,692</tri3>
			<tri3 id="2">692,630,629</tri3>
			<tri3 id="3">691,751,752</tri3>
			<tri3 id="4">752,692,691</tri3>
			<tri3 id="5">751,811,812</tri3>
			<tri3 id="6">812,752,751</tri3>
			<tri3 id="7">811,871,872</tri3>
			<tri3 id="8">872,812,811</tri3>
			<tri3 id="9">871,931,932</tri3>
			<tri3 id="10">932,872,871</tri3>
			<tri3 id="11">931,991,992</tri3>
			<tri3 id="12">992,932,931</tri3>
			<tri3 id="13">991,1051,1052</tri3>
			<tri3 id="14">1052,992,991</tri3>
			<tri3 id="15">1051,1111,1112</tri3>
			<tri3 id="16">1112,1052,1051</tri3>
			<tri3 id="17">1111,1171,1172</tri3>
			<tri3 id="18">1172,1112,1111</tri3>
			<tri3 id="19">1171,1231,1232</tri3>
			<tri3 id="20">1232,1172,1171</tri3>
<!-- ... 20 like lines cut -->
		</Surface>
		<Surface name="FixedFluidVelocity02">
			<tri3 id="1">21,22,690</tri3>
			<tri3 id="2">690,689,21</tri3>
			<tri3 id="3">21,43,44</tri3>
			<tri3 id="4">44,22,21</tri3>
			<tri3 id="5">43,65,66</tri3>
			<tri3 id="6">66,44,43</tri3>
			<tri3 id="7">65,87,88</tri3>
			<tri3 id="8">88,66,65</tri3>
			<tri3 id="9">87,109,110</tri3>
			<tri3 id="10">110,88,87</tri3>
			<tri3 id="11">109,131,132</tri3>
			<tri3 id="12">132,110,109</tri3>
			<tri3 id="13">131,153,154</tri3>
			<tri3 id="14">154,132,131</tri3>
			<tri3 id="15">153,175,176</tri3>
			<tri3 id="16">176,154,153</tri3>
			<tri3 id="17">175,197,198</tri3>
			<tri3 id="18">198,176,175</tri3>
			<tri3 id="19">197,219,220</tri3>
			<tri3 id="20">220,198,197</tri3>
<!-- ... 4132 like lines cut -->
		</Surface>
		<Surface name="FixedFluidVelocity03">
			<tri3 id="1">1,689,690</tri3>
			<tri3 id="2">690,2,1</tri3>
			<tri3 id="3">1,2,4</tri3>
			<tri3 id="4">4,3,1</tri3>
			<tri3 id="5">3,4,6</tri3>
			<tri3 id="6">6,5,3</tri3>
			<tri3 id="7">5,6,8</tri3>
			<tri3 id="8">8,7,5</tri3>
			<tri3 id="9">7,8,10</tri3>
			<tri3 id="10">10,9,7</tri3>
			<tri3 id="11">9,10,12</tri3>
			<tri3 id="12">12,11,9</tri3>
			<tri3 id="13">11,12,14</tri3>
			<tri3 id="14">14,13,11</tri3>
			<tri3 id="15">13,14,16</tri3>
			<tri3 id="16">16,15,13</tri3>
			<tri3 id="17">15,16,18</tri3>
			<tri3 id="18">18,17,15</tri3>
			<tri3 id="19">19,465,473</tri3>
			<tri3 id="20">473,20,19</tri3>
<!-- ... 172 like lines cut -->
		</Surface>
		<Surface name="FixedFluidDilatation01">
			<tri3 id="1">1,689,690</tri3>
			<tri3 id="2">690,2,1</tri3>
			<tri3 id="3">1,2,4</tri3>
			<tri3 id="4">4,3,1</tri3>
			<tri3 id="5">3,4,6</tri3>
			<tri3 id="6">6,5,3</tri3>
			<tri3 id="7">5,6,8</tri3>
			<tri3 id="8">8,7,5</tri3>
			<tri3 id="9">7,8,10</tri3>
			<tri3 id="10">10,9,7</tri3>
			<tri3 id="11">9,10,12</tri3>
			<tri3 id="12">12,11,9</tri3>
			<tri3 id="13">11,12,14</tri3>
			<tri3 id="14">14,13,11</tri3>
			<tri3 id="15">13,14,16</tri3>
			<tri3 id="16">16,15,13</tri3>
			<tri3 id="17">15,16,18</tri3>
			<tri3 id="18">18,17,15</tri3>
			<tri3 id="19">19,465,473</tri3>
			<tri3 id="20">473,20,19</tri3>
<!-- ... 172 like lines cut -->
		</Surface>
		<Surface name="FixedFluidVelocity04">
			<tri3 id="1">19,20,42</tri3>
			<tri3 id="2">42,41,19</tri3>
			<tri3 id="3">41,42,64</tri3>
			<tri3 id="4">64,63,41</tri3>
			<tri3 id="5">63,64,86</tri3>
			<tri3 id="6">86,85,63</tri3>
			<tri3 id="7">85,86,108</tri3>
			<tri3 id="8">108,107,85</tri3>
			<tri3 id="9">107,108,130</tri3>
			<tri3 id="10">130,129,107</tri3>
			<tri3 id="11">129,130,152</tri3>
			<tri3 id="12">152,151,129</tri3>
			<tri3 id="13">151,152,174</tri3>
			<tri3 id="14">174,173,151</tri3>
			<tri3 id="15">173,174,196</tri3>
			<tri3 id="16">196,195,173</tri3>
			<tri3 id="17">195,196,218</tri3>
			<tri3 id="18">218,217,195</tri3>
			<tri3 id="19">217,218,240</tri3>
			<tri3 id="20">240,239,217</tri3>
<!-- ... 20 like lines cut -->
		</Surface>
		<Surface name="FixedDisplacement01">
			<tri3 id="1">21,22,690</tri3>
			<tri3 id="2">690,689,21</tri3>
			<tri3 id="3">21,43,44</tri3>
			<tri3 id="4">44,22,21</tri3>
			<tri3 id="5">43,65,66</tri3>
			<tri3 id="6">66,44,43</tri3>
			<tri3 id="7">65,87,88</tri3>
			<tri3 id="8">88,66,65</tri3>
			<tri3 id="9">87,109,110</tri3>
			<tri3 id="10">110,88,87</tri3>
			<tri3 id="11">109,131,132</tri3>
			<tri3 id="12">132,110,109</tri3>
			<tri3 id="13">131,153,154</tri3>
			<tri3 id="14">154,132,131</tri3>
			<tri3 id="15">153,175,176</tri3>
			<tri3 id="16">176,154,153</tri3>
			<tri3 id="17">175,197,198</tri3>
			<tri3 id="18">198,176,175</tri3>
			<tri3 id="19">197,219,220</tri3>
			<tri3 id="20">220,198,197</tri3>
<!-- ... 4132 like lines cut -->
		</Surface>
		<Surface name="PrescribedFluidVelocity1">
			<tri3 id="1">19,20,42</tri3>
			<tri3 id="2">42,41,19</tri3>
			<tri3 id="3">41,42,64</tri3>
			<tri3 id="4">64,63,41</tri3>
			<tri3 id="5">63,64,86</tri3>
			<tri3 id="6">86,85,63</tri3>
			<tri3 id="7">85,86,108</tri3>
			<tri3 id="8">108,107,85</tri3>
			<tri3 id="9">107,108,130</tri3>
			<tri3 id="10">130,129,107</tri3>
			<tri3 id="11">129,130,152</tri3>
			<tri3 id="12">152,151,129</tri3>
			<tri3 id="13">151,152,174</tri3>
			<tri3 id="14">174,173,151</tri3>
			<tri3 id="15">173,174,196</tri3>
			<tri3 id="16">196,195,173</tri3>
			<tri3 id="17">195,196,218</tri3>
			<tri3 id="18">218,217,195</tri3>
			<tri3 id="19">217,218,240</tri3>
			<tri3 id="20">240,239,217</tri3>
<!-- ... 20 like lines cut -->
		</Surface>
	</Mesh>
	<MeshDomains>
		<SolidDomain name="Part3" mat="Material1"/>
		<SolidDomain name="Part4" mat="Material2"/>
	</MeshDomains>
	<Boundary>
		<bc name="FixedFluidVelocity01" type="fix" node_set="@surface:FixedFluidVelocity01">
			<dofs>wx,wy,wz</dofs>
		</bc>
		<bc name="FixedFluidVelocity02" type="fix" node_set="@surface:FixedFluidVelocity02">
			<dofs>wz</dofs>
		</bc>
		<bc name="FixedFluidVelocity03" type="fix" node_set="@surface:FixedFluidVelocity03">
			<dofs>wy,wz</dofs>
		</bc>
		<bc name="FixedFluidDilatation01" type="fix" node_set="@surface:FixedFluidDilatation01">
			<dofs>ef</dofs>
		</bc>
		<bc name="FixedFluidVelocity04" type="fix" node_set="@surface:FixedFluidVelocity04">
			<dofs>wy,wz</dofs>
		</bc>
		<bc name="FixedDisplacement01" type="fix" node_set="@surface:FixedDisplacement01">
			<dofs>x,y,z</dofs>
		</bc>
		<bc name="PrescribedFluidVelocity1" type="prescribe" node_set="@surface:PrescribedFluidVelocity1">
			<dof>wx</dof>
			<scale lc="1">1</scale>
			<relative>0</relative>
		</bc>
	</Boundary>
	<LoadData>
		<load_controller id="1" type="loadcurve">
			<interpolate>SMOOTH</interpolate>
			<points>
				<point>0,0</point>
				<point>1,1</point>
			</points>
		</load_controller>
	</LoadData>
	<Output>
		<plotfile type="febio">
			<var type="acceleration"/>
			<var type="displacement"/>
			<var type="velocity"/>
			<var type="fluid pressure"/>
			<var type="fluid flux"/>
			<var type="fluid acceleration"/>
			<var type="fluid dilatation"/>
			<var type="fluid rate of deformation"/>
			<var type="fluid stress"/>
			<var type="fluid velocity"/>
			<var type="fluid volume ratio"/>
			<var type="fluid vorticity"/>
			<var type="nodal fluid velocity"/>
			<var type="nodal fluid flux"/>
		</plotfile>
	</Output>
</febio_spec>
