<?xml version="1.0" encoding="ISO-8859-1"?>
<!--
BFSI Taylor slip problem that models Couette flow over a rigid porous layer. Tangential velocity prescribed on top of fluid layer, with no slip wall at bottom of porous domain, where an interface is shared between the two. 0 pressure and displacement throughout. Hex20

Similar examples seen in results of
   Shim JJ, Maas SA, Weiss JA, Ateshian GA. (2021) J Biomech Eng, In Press.
-->
<febio_spec version="4.0">
	<Module type="fluid-FSI"/>
	<Control>
		<analysis>DYNAMIC</analysis>
		<time_steps>10</time_steps>
		<step_size>0.1</step_size>
		<plot_zero_state>0</plot_zero_state>
		<plot_range>0,-1</plot_range>
		<plot_level>PLOT_MAJOR_ITRS</plot_level>
		<output_level>OUTPUT_MAJOR_ITRS</output_level>
		<plot_stride>1</plot_stride>
		<adaptor_re_solve>1</adaptor_re_solve>
		<time_stepper type="default">
			<max_retries>9</max_retries>
			<opt_iter>50</opt_iter>
			<dtmin>0.01</dtmin>
			<dtmax>0.1</dtmax>
			<aggressiveness>0</aggressiveness>
			<cutback>0.5</cutback>
			<dtforce>0</dtforce>
		</time_stepper>
		<solver type="fluid-FSI">
			<symmetric_stiffness>non-symmetric</symmetric_stiffness>
			<equation_scheme>staggered</equation_scheme>
			<equation_order>default</equation_order>
			<optimize_bw>0</optimize_bw>
			<lstol>0.9</lstol>
			<lsmin>0.01</lsmin>
			<lsiter>5</lsiter>
			<max_refs>5</max_refs>
			<check_zero_diagonal>0</check_zero_diagonal>
			<zero_diagonal_tol>0</zero_diagonal_tol>
			<force_partition>0</force_partition>
			<reform_each_time_step>0</reform_each_time_step>
			<reform_augment>0</reform_augment>
			<diverge_reform>0</diverge_reform>
			<min_residual>1e-29</min_residual>
			<max_residual>1e+20</max_residual>
			<dtol>0</dtol>
			<vtol>0.001</vtol>
			<ftol>0</ftol>
			<etol>0.01</etol>
			<rtol>0.001</rtol>
			<rhoi>0</rhoi>
			<predictor>0</predictor>
			<min_volume_ratio>0</min_volume_ratio>
			<order>2</order>
			<qn_method type="Broyden">
				<max_ups>50</max_ups>
				<max_buffer_size>0</max_buffer_size>
				<cycle_buffer>1</cycle_buffer>
				<cmax>100000</cmax>
			</qn_method>
		</solver>
	</Control>
	<Globals>
		<Constants>
			<T>0</T>
			<R>0</R>
			<Fc>0</Fc>
		</Constants>
	</Globals>
	<Material>
		<material id="1" name="Material1" type="biphasic-FSI">
			<phi0>0</phi0>
			<solid type="neo-Hookean">
				<density>0</density>
				<E>1e-09</E>
				<v>0</v>
			</solid>
			<fluid>
				<density>0</density>
				<k>1e+12</k>
				<viscous type="Newtonian fluid">
					<kappa>0</kappa>
					<mu>1</mu>
				</viscous>
			</fluid>
			<permeability type="perm-const-iso">
				<perm>0</perm>
			</permeability>
		</material>
		<material id="2" name="Material2" type="biphasic-FSI">
			<phi0>0.5</phi0>
			<solid type="neo-Hookean">
				<density>0</density>
				<E>6.75e+09</E>
				<v>0.125</v>
			</solid>
			<fluid>
				<density>0</density>
				<k>1e+12</k>
				<viscous type="Newtonian fluid">
					<kappa>0</kappa>
					<mu>0.25</mu>
				</viscous>
			</fluid>
			<permeability type="perm-const-iso">
				<perm>1</perm>
			</permeability>
		</material>
	</Material>
	<Mesh>
		<Nodes name="Object01">
			<node id="1">-0.5,0.025,0</node>
			<node id="2">-0.5,0.025,0.1</node>
			<node id="3">-0.5,0.05,0</node>
			<node id="4">-0.5,0.05,0.1</node>
			<node id="5">-0.5,0.075,0</node>
			<node id="6">-0.5,0.075,0.1</node>
			<node id="7">-0.5,0.1,0</node>
			<node id="8">-0.5,0.1,0.1</node>
			<node id="9">-0.5,0.125,0</node>
			<node id="10">-0.5,0.125,0.1</node>
			<node id="11">-0.5,0.15,0</node>
			<node id="12">-0.5,0.15,0.1</node>
			<node id="13">-0.5,0.175,0</node>
			<node id="14">-0.5,0.175,0.1</node>
			<node id="15">-0.5,0.2,0</node>
			<node id="16">-0.5,0.2,0.1</node>
			<node id="17">-0.5,0.225,0</node>
			<node id="18">-0.5,0.225,0.1</node>
			<node id="19">-0.5,0.25,0</node>
			<node id="20">-0.5,0.25,0.1</node>
<!-- ... 7043 like lines cut -->
		</Nodes>
		<Elements type="hex20" name="Part3">
			<elem id="1">689,21,23,1,690,22,24,2,2111,2112,2059,2060,2116,2117,2063,2064,3753,2113,2120,2061</elem>
			<elem id="2">1,23,25,3,2,24,26,4,2059,2121,2066,2062,2063,2123,2069,2065,2061,2120,2125,2067</elem>
			<elem id="3">3,25,27,5,4,26,28,6,2066,2126,2071,2068,2069,2128,2074,2070,2067,2125,2130,2072</elem>
			<elem id="4">5,27,29,7,6,28,30,8,2071,2131,2076,2073,2074,2133,2079,2075,2072,2130,2135,2077</elem>
			<elem id="5">7,29,31,9,8,30,32,10,2076,2136,2081,2078,2079,2138,2084,2080,2077,2135,2140,2082</elem>
			<elem id="6">9,31,33,11,10,32,34,12,2081,2141,2086,2083,2084,2143,2089,2085,2082,2140,2145,2087</elem>
			<elem id="7">11,33,35,13,12,34,36,14,2086,2146,2091,2088,2089,2148,2094,2090,2087,2145,2150,2092</elem>
			<elem id="8">13,35,37,15,14,36,38,16,2091,2151,2096,2093,2094,2153,2099,2095,2092,2150,2155,2097</elem>
			<elem id="9">15,37,39,17,16,38,40,18,2096,2156,2101,2098,2099,2158,2104,2100,2097,2155,2160,2102</elem>
			<elem id="10">21,43,45,23,22,44,46,24,2114,2170,2122,2112,2118,2174,2124,2117,2113,2171,2177,2120</elem>
			<elem id="11">23,45,47,25,24,46,48,26,2122,2178,2127,2121,2124,2180,2129,2123,2120,2177,2182,2125</elem>
			<elem id="12">25,47,49,27,26,48,50,28,2127,2183,2132,2126,2129,2185,2134,2128,2125,2182,2187,2130</elem>
			<elem id="13">27,49,51,29,28,50,52,30,2132,2188,2137,2131,2134,2190,2139,2133,2130,2187,2192,2135</elem>
			<elem id="14">29,51,53,31,30,52,54,32,2137,2193,2142,2136,2139,2195,2144,2138,2135,2192,2197,2140</elem>
			<elem id="15">31,53,55,33,32,54,56,34,2142,2198,2147,2141,2144,2200,2149,2143,2140,2197,2202,2145</elem>
			<elem id="16">33,55,57,35,34,56,58,36,2147,2203,2152,2146,2149,2205,2154,2148,2145,2202,2207,2150</elem>
			<elem id="17">35,57,59,37,36,58,60,38,2152,2208,2157,2151,2154,2210,2159,2153,2150,2207,2212,2155</elem>
			<elem id="18">37,59,61,39,38,60,62,40,2157,2213,2161,2156,2159,2215,2163,2158,2155,2212,2217,2160</elem>
			<elem id="19">43,65,67,45,44,66,68,46,2172,2227,2179,2170,2175,2231,2181,2174,2171,2228,2234,2177</elem>
			<elem id="20">45,67,69,47,46,68,70,48,2179,2235,2184,2178,2181,2237,2186,2180,2177,2234,2239,2182</elem>
<!-- ... 260 like lines cut -->
		</Elements>
		<Elements type="hex20" name="Part4">
			<elem id="281">631,693,695,633,632,694,696,634,3606,3759,3613,3607,3610,3763,3616,3611,3608,3760,3766,3614</elem>
			<elem id="282">633,695,697,635,634,696,698,636,3613,3767,3618,3615,3616,3769,3621,3617,3614,3766,3771,3619</elem>
			<elem id="283">635,697,699,637,636,698,700,638,3618,3772,3623,3620,3621,3774,3626,3622,3619,3771,3776,3624</elem>
			<elem id="284">637,699,701,639,638,700,702,640,3623,3777,3628,3625,3626,3779,3631,3627,3624,3776,3781,3629</elem>
			<elem id="285">639,701,703,641,640,702,704,642,3628,3782,3633,3630,3631,3784,3636,3632,3629,3781,3786,3634</elem>
			<elem id="286">641,703,705,643,642,704,706,644,3633,3787,3638,3635,3636,3789,3641,3637,3634,3786,3791,3639</elem>
			<elem id="287">643,705,707,645,644,706,708,646,3638,3792,3643,3640,3641,3794,3646,3642,3639,3791,3796,3644</elem>
			<elem id="288">645,707,709,647,646,708,710,648,3643,3797,3648,3645,3646,3799,3651,3647,3644,3796,3801,3649</elem>
			<elem id="289">647,709,711,649,648,710,712,650,3648,3802,3653,3650,3651,3804,3656,3652,3649,3801,3806,3654</elem>
			<elem id="290">649,711,713,651,650,712,714,652,3653,3807,3658,3655,3656,3809,3661,3657,3654,3806,3811,3659</elem>
			<elem id="291">651,713,715,653,652,714,716,654,3658,3812,3663,3660,3661,3814,3666,3662,3659,3811,3816,3664</elem>
			<elem id="292">653,715,717,655,654,716,718,656,3663,3817,3668,3665,3666,3819,3671,3667,3664,3816,3821,3669</elem>
			<elem id="293">655,717,719,657,656,718,720,658,3668,3822,3673,3670,3671,3824,3676,3672,3669,3821,3826,3674</elem>
			<elem id="294">657,719,721,659,658,720,722,660,3673,3827,3678,3675,3676,3829,3681,3677,3674,3826,3831,3679</elem>
			<elem id="295">659,721,723,661,660,722,724,662,3678,3832,3683,3680,3681,3834,3686,3682,3679,3831,3836,3684</elem>
			<elem id="296">661,723,725,663,662,724,726,664,3683,3837,3688,3685,3686,3839,3691,3687,3684,3836,3841,3689</elem>
			<elem id="297">663,725,727,665,664,726,728,666,3688,3842,3693,3690,3691,3844,3696,3692,3689,3841,3846,3694</elem>
			<elem id="298">665,727,729,667,666,728,730,668,3693,3847,3698,3695,3696,3849,3701,3697,3694,3846,3851,3699</elem>
			<elem id="299">667,729,731,669,668,730,732,670,3698,3852,3703,3700,3701,3854,3706,3702,3699,3851,3856,3704</elem>
			<elem id="300">669,731,733,671,670,732,734,672,3703,3857,3708,3705,3706,3859,3711,3707,3704,3856,3861,3709</elem>
<!-- ... 660 like lines cut -->
		</Elements>
		<Surface name="FixedFluidVelocity01">
			<quad8 id="1">629,691,692,630,3602,3755,3605,3603</quad8>
			<quad8 id="2">691,751,752,692,3756,3905,3758,3755</quad8>
			<quad8 id="3">751,811,812,752,3906,4055,3908,3905</quad8>
			<quad8 id="4">811,871,872,812,4056,4205,4058,4055</quad8>
			<quad8 id="5">871,931,932,872,4206,4355,4208,4205</quad8>
			<quad8 id="6">931,991,992,932,4356,4505,4358,4355</quad8>
			<quad8 id="7">991,1051,1052,992,4506,4655,4508,4505</quad8>
			<quad8 id="8">1051,1111,1112,1052,4656,4805,4658,4655</quad8>
			<quad8 id="9">1111,1171,1172,1112,4806,4955,4808,4805</quad8>
			<quad8 id="10">1171,1231,1232,1172,4956,5105,4958,4955</quad8>
			<quad8 id="11">1231,1291,1292,1232,5106,5255,5108,5105</quad8>
			<quad8 id="12">1291,1351,1352,1292,5256,5405,5258,5255</quad8>
			<quad8 id="13">1351,1411,1412,1352,5406,5555,5408,5405</quad8>
			<quad8 id="14">1411,1471,1472,1412,5556,5705,5558,5555</quad8>
			<quad8 id="15">1471,1531,1532,1472,5706,5855,5708,5705</quad8>
			<quad8 id="16">1531,1591,1592,1532,5856,6005,5858,5855</quad8>
			<quad8 id="17">1591,1651,1652,1592,6006,6155,6008,6005</quad8>
			<quad8 id="18">1651,1711,1712,1652,6156,6305,6158,6155</quad8>
			<quad8 id="19">1711,1771,1772,1712,6306,6455,6308,6305</quad8>
			<quad8 id="20">1771,1831,1832,1772,6456,6605,6458,6455</quad8>
		</Surface>
		<Surface name="FixedFluidVelocity02">
			<quad8 id="1">689,21,22,690,2111,2113,2116,3753</quad8>
			<quad8 id="2">21,43,44,22,2114,2171,2118,2113</quad8>
			<quad8 id="3">43,65,66,44,2172,2228,2175,2171</quad8>
			<quad8 id="4">65,87,88,66,2229,2285,2232,2228</quad8>
			<quad8 id="5">87,109,110,88,2286,2342,2289,2285</quad8>
			<quad8 id="6">109,131,132,110,2343,2399,2346,2342</quad8>
			<quad8 id="7">131,153,154,132,2400,2456,2403,2399</quad8>
			<quad8 id="8">153,175,176,154,2457,2513,2460,2456</quad8>
			<quad8 id="9">175,197,198,176,2514,2570,2517,2513</quad8>
			<quad8 id="10">197,219,220,198,2571,2627,2574,2570</quad8>
			<quad8 id="11">219,241,242,220,2628,2684,2631,2627</quad8>
			<quad8 id="12">241,263,264,242,2685,2741,2688,2684</quad8>
			<quad8 id="13">263,285,286,264,2742,2798,2745,2741</quad8>
			<quad8 id="14">285,307,308,286,2799,2855,2802,2798</quad8>
			<quad8 id="15">307,329,330,308,2856,2912,2859,2855</quad8>
			<quad8 id="16">329,351,352,330,2913,2969,2916,2912</quad8>
			<quad8 id="17">351,373,374,352,2970,3026,2973,2969</quad8>
			<quad8 id="18">373,395,396,374,3027,3083,3030,3026</quad8>
			<quad8 id="19">395,417,418,396,3084,3140,3087,3083</quad8>
			<quad8 id="20">417,439,440,418,3141,3197,3144,3140</quad8>
<!-- ... 2056 like lines cut -->
		</Surface>
		<Surface name="FixedFluidVelocity03">
			<quad8 id="1">1,689,690,2,2060,3753,2064,2061</quad8>
			<quad8 id="2">3,1,2,4,2062,2061,2065,2067</quad8>
			<quad8 id="3">5,3,4,6,2068,2067,2070,2072</quad8>
			<quad8 id="4">7,5,6,8,2073,2072,2075,2077</quad8>
			<quad8 id="5">9,7,8,10,2078,2077,2080,2082</quad8>
			<quad8 id="6">11,9,10,12,2083,2082,2085,2087</quad8>
			<quad8 id="7">13,11,12,14,2088,2087,2090,2092</quad8>
			<quad8 id="8">15,13,14,16,2093,2092,2095,2097</quad8>
			<quad8 id="9">17,15,16,18,2098,2097,2100,2102</quad8>
			<quad8 id="10">19,465,473,20,2106,3246,2109,2108</quad8>
			<quad8 id="11">465,466,474,473,3247,3248,3264,3246</quad8>
			<quad8 id="12">466,467,475,474,3249,3250,3265,3248</quad8>
			<quad8 id="13">467,468,476,475,3251,3252,3266,3250</quad8>
			<quad8 id="14">468,17,18,476,2103,2102,2105,3252</quad8>
			<quad8 id="15">439,441,442,440,3196,3201,3199,3197</quad8>
			<quad8 id="16">441,443,444,442,3202,3204,3203,3201</quad8>
			<quad8 id="17">443,445,446,444,3205,3207,3206,3204</quad8>
			<quad8 id="18">445,447,448,446,3208,3210,3209,3207</quad8>
			<quad8 id="19">447,449,450,448,3211,3213,3212,3210</quad8>
			<quad8 id="20">449,451,452,450,3214,3216,3215,3213</quad8>
<!-- ... 76 like lines cut -->
		</Surface>
		<Surface name="FixedFluidDilatation01">
			<quad8 id="1">1,689,690,2,2060,3753,2064,2061</quad8>
			<quad8 id="2">3,1,2,4,2062,2061,2065,2067</quad8>
			<quad8 id="3">5,3,4,6,2068,2067,2070,2072</quad8>
			<quad8 id="4">7,5,6,8,2073,2072,2075,2077</quad8>
			<quad8 id="5">9,7,8,10,2078,2077,2080,2082</quad8>
			<quad8 id="6">11,9,10,12,2083,2082,2085,2087</quad8>
			<quad8 id="7">13,11,12,14,2088,2087,2090,2092</quad8>
			<quad8 id="8">15,13,14,16,2093,2092,2095,2097</quad8>
			<quad8 id="9">17,15,16,18,2098,2097,2100,2102</quad8>
			<quad8 id="10">19,465,473,20,2106,3246,2109,2108</quad8>
			<quad8 id="11">465,466,474,473,3247,3248,3264,3246</quad8>
			<quad8 id="12">466,467,475,474,3249,3250,3265,3248</quad8>
			<quad8 id="13">467,468,476,475,3251,3252,3266,3250</quad8>
			<quad8 id="14">468,17,18,476,2103,2102,2105,3252</quad8>
			<quad8 id="15">439,441,442,440,3196,3201,3199,3197</quad8>
			<quad8 id="16">441,443,444,442,3202,3204,3203,3201</quad8>
			<quad8 id="17">443,445,446,444,3205,3207,3206,3204</quad8>
			<quad8 id="18">445,447,448,446,3208,3210,3209,3207</quad8>
			<quad8 id="19">447,449,450,448,3211,3213,3212,3210</quad8>
			<quad8 id="20">449,451,452,450,3214,3216,3215,3213</quad8>
<!-- ... 76 like lines cut -->
		</Surface>
		<Surface name="FixedFluidVelocity04">
			<quad8 id="1">41,19,20,42,2107,2108,2110,2166</quad8>
			<quad8 id="2">63,41,42,64,2167,2166,2169,2223</quad8>
			<quad8 id="3">85,63,64,86,2224,2223,2226,2280</quad8>
			<quad8 id="4">107,85,86,108,2281,2280,2283,2337</quad8>
			<quad8 id="5">129,107,108,130,2338,2337,2340,2394</quad8>
			<quad8 id="6">151,129,130,152,2395,2394,2397,2451</quad8>
			<quad8 id="7">173,151,152,174,2452,2451,2454,2508</quad8>
			<quad8 id="8">195,173,174,196,2509,2508,2511,2565</quad8>
			<quad8 id="9">217,195,196,218,2566,2565,2568,2622</quad8>
			<quad8 id="10">239,217,218,240,2623,2622,2625,2679</quad8>
			<quad8 id="11">261,239,240,262,2680,2679,2682,2736</quad8>
			<quad8 id="12">283,261,262,284,2737,2736,2739,2793</quad8>
			<quad8 id="13">305,283,284,306,2794,2793,2796,2850</quad8>
			<quad8 id="14">327,305,306,328,2851,2850,2853,2907</quad8>
			<quad8 id="15">349,327,328,350,2908,2907,2910,2964</quad8>
			<quad8 id="16">371,349,350,372,2965,2964,2967,3021</quad8>
			<quad8 id="17">393,371,372,394,3022,3021,3024,3078</quad8>
			<quad8 id="18">415,393,394,416,3079,3078,3081,3135</quad8>
			<quad8 id="19">437,415,416,438,3136,3135,3138,3192</quad8>
			<quad8 id="20">459,437,438,460,3193,3192,3195,3229</quad8>
		</Surface>
		<Surface name="FixedDisplacement01">
			<quad8 id="1">689,21,22,690,2111,2113,2116,3753</quad8>
			<quad8 id="2">21,43,44,22,2114,2171,2118,2113</quad8>
			<quad8 id="3">43,65,66,44,2172,2228,2175,2171</quad8>
			<quad8 id="4">65,87,88,66,2229,2285,2232,2228</quad8>
			<quad8 id="5">87,109,110,88,2286,2342,2289,2285</quad8>
			<quad8 id="6">109,131,132,110,2343,2399,2346,2342</quad8>
			<quad8 id="7">131,153,154,132,2400,2456,2403,2399</quad8>
			<quad8 id="8">153,175,176,154,2457,2513,2460,2456</quad8>
			<quad8 id="9">175,197,198,176,2514,2570,2517,2513</quad8>
			<quad8 id="10">197,219,220,198,2571,2627,2574,2570</quad8>
			<quad8 id="11">219,241,242,220,2628,2684,2631,2627</quad8>
			<quad8 id="12">241,263,264,242,2685,2741,2688,2684</quad8>
			<quad8 id="13">263,285,286,264,2742,2798,2745,2741</quad8>
			<quad8 id="14">285,307,308,286,2799,2855,2802,2798</quad8>
			<quad8 id="15">307,329,330,308,2856,2912,2859,2855</quad8>
			<quad8 id="16">329,351,352,330,2913,2969,2916,2912</quad8>
			<quad8 id="17">351,373,374,352,2970,3026,2973,2969</quad8>
			<quad8 id="18">373,395,396,374,3027,3083,3030,3026</quad8>
			<quad8 id="19">395,417,418,396,3084,3140,3087,3083</quad8>
			<quad8 id="20">417,439,440,418,3141,3197,3144,3140</quad8>
<!-- ... 2056 like lines cut -->
		</Surface>
		<Surface name="PrescribedFluidVelocity1">
			<quad8 id="1">41,19,20,42,2107,2108,2110,2166</quad8>
			<quad8 id="2">63,41,42,64,2167,2166,2169,2223</quad8>
			<quad8 id="3">85,63,64,86,2224,2223,2226,2280</quad8>
			<quad8 id="4">107,85,86,108,2281,2280,2283,2337</quad8>
			<quad8 id="5">129,107,108,130,2338,2337,2340,2394</quad8>
			<quad8 id="6">151,129,130,152,2395,2394,2397,2451</quad8>
			<quad8 id="7">173,151,152,174,2452,2451,2454,2508</quad8>
			<quad8 id="8">195,173,174,196,2509,2508,2511,2565</quad8>
			<quad8 id="9">217,195,196,218,2566,2565,2568,2622</quad8>
			<quad8 id="10">239,217,218,240,2623,2622,2625,2679</quad8>
			<quad8 id="11">261,239,240,262,2680,2679,2682,2736</quad8>
			<quad8 id="12">283,261,262,284,2737,2736,2739,2793</quad8>
			<quad8 id="13">305,283,284,306,2794,2793,2796,2850</quad8>
			<quad8 id="14">327,305,306,328,2851,2850,2853,2907</quad8>
			<quad8 id="15">349,327,328,350,2908,2907,2910,2964</quad8>
			<quad8 id="16">371,349,350,372,2965,2964,2967,3021</quad8>
			<quad8 id="17">393,371,372,394,3022,3021,3024,3078</quad8>
			<quad8 id="18">415,393,394,416,3079,3078,3081,3135</quad8>
			<quad8 id="19">437,415,416,438,3136,3135,3138,3192</quad8>
			<quad8 id="20">459,437,438,460,3193,3192,3195,3229</quad8>
		</Surface>
	</Mesh>
	<MeshDomains>
		<SolidDomain name="Part3" mat="Material1"/>
		<SolidDomain name="Part4" mat="Material2"/>
	</MeshDomains>
	<Boundary>
		<bc name="FixedFluidVelocity01" node_set="@surface:FixedFluidVelocity01" type="zero fluid velocity">
			<wx_dof>1</wx_dof>
			<wy_dof>1</wy_dof>
			<wz_dof>1</wz_dof>
		</bc>
		<bc name="FixedFluidVelocity02" node_set="@surface:FixedFluidVelocity02" type="zero fluid velocity">
			<wx_dof>0</wx_dof>
			<wy_dof>0</wy_dof>
			<wz_dof>1</wz_dof>
		</bc>
		<bc name="FixedFluidVelocity03" node_set="@surface:FixedFluidVelocity03" type="zero fluid velocity">
			<wx_dof>0</wx_dof>
			<wy_dof>1</wy_dof>
			<wz_dof>1</wz_dof>
		</bc>
		<bc name="FixedFluidDilatation01" node_set="@surface:FixedFluidDilatation01" type="zero fluid dilatation"/>
		<bc name="FixedFluidVelocity04" node_set="@surface:FixedFluidVelocity04" type="zero fluid velocity">
			<wx_dof>0</wx_dof>
			<wy_dof>1</wy_dof>
			<wz_dof>1</wz_dof>
		</bc>
		<bc name="FixedDisplacement01" node_set="@surface:FixedDisplacement01" type="zero displacement">
			<x_dof>1</x_dof>
			<y_dof>1</y_dof>
			<z_dof>1</z_dof>
		</bc>
		<bc name="PrescribedFluidVelocity1" node_set="@surface:PrescribedFluidVelocity1" type="prescribed fluid velocity">
			<dof>wx</dof>
			<value lc="1">1</value>
			<relative>0</relative>
		</bc>
	</Boundary>
	<LoadData>
		<load_controller id="1" name="LC1" type="loadcurve">
			<interpolate>SMOOTH</interpolate>
			<extend>CONSTANT</extend>
			<points>
				<pt>0,0</pt>
				<pt>1,1</pt>
			</points>
		</load_controller>
	</LoadData>
	<Output>
		<plotfile type="febio">
			<var type="acceleration"/>
			<var type="displacement"/>
			<var type="velocity"/>
			<var type="fluid pressure"/>
			<var type="fluid flux"/>
			<var type="fluid acceleration"/>
			<var type="fluid dilatation"/>
			<var type="fluid rate of deformation"/>
			<var type="fluid stress"/>
			<var type="fluid velocity"/>
			<var type="fluid volume ratio"/>
			<var type="fluid vorticity"/>
			<var type="nodal fluid velocity"/>
			<var type="nodal fluid flux"/>
		</plotfile>
	</Output>
</febio_spec>
