<?xml version="1.0" encoding="ISO-8859-1"?>
<!--
Problem Description:
	BFSI compression of a block with HolmesMow permeability model. Smoothly compress by 99.99% to t=1s. 
Main Features:
	BFSI
	porous solid
	non linear permeability
Secondary Features:
	Broyden
	no ref each step
	no diverge reform
	Moving boundary
Materials:
	NeoHookean
	Poroelastic
	Newtonian
	Holmes Mow Permeability
Degrees of Freedom: 1204
Results:
	Steps Completed: 111
	Equilibrium Iterations: 1060
	Right Hand Evaluations: 1609
	Siffness Reformations: 36
	Other:
		The zpermeability for element 100 at t=1 is 0.0100048
Comments:
-->
<febio_spec version="4.0">
	<Module type="fluid-FSI"/>
	<Control>
		<analysis>DYNAMIC</analysis>
		<time_steps>100</time_steps>
		<step_size>0.01</step_size>
		<plot_zero_state>0</plot_zero_state>
		<plot_range>0,-1</plot_range>
		<plot_level>PLOT_MAJOR_ITRS</plot_level>
		<output_level>OUTPUT_MAJOR_ITRS</output_level>
		<plot_stride>1</plot_stride>
		<adaptor_re_solve>1</adaptor_re_solve>
		<time_stepper type="default">
			<max_retries>9</max_retries>
			<opt_iter>50</opt_iter>
			<dtmin>0.001</dtmin>
			<dtmax>0.01</dtmax>
			<aggressiveness>0</aggressiveness>
			<cutback>0.5</cutback>
			<dtforce>0</dtforce>
		</time_stepper>
		<solver type="fluid-FSI">
			<symmetric_stiffness>non-symmetric</symmetric_stiffness>
			<equation_scheme>staggered</equation_scheme>
			<equation_order>default</equation_order>
			<optimize_bw>0</optimize_bw>
			<lstol>0.9</lstol>
			<lsmin>0.01</lsmin>
			<lsiter>5</lsiter>
			<max_refs>5</max_refs>
			<check_zero_diagonal>0</check_zero_diagonal>
			<zero_diagonal_tol>0</zero_diagonal_tol>
			<force_partition>0</force_partition>
			<reform_each_time_step>0</reform_each_time_step>
			<reform_augment>0</reform_augment>
			<diverge_reform>0</diverge_reform>
			<min_residual>1e-20</min_residual>
			<max_residual>1e+20</max_residual>
			<dtol>0.001</dtol>
			<vtol>0.001</vtol>
			<ftol>0.001</ftol>
			<etol>0.01</etol>
			<rtol>0.001</rtol>
			<rhoi>0</rhoi>
			<predictor>0</predictor>
			<min_volume_ratio>0</min_volume_ratio>
			<order>2</order>
			<qn_method type="Broyden">
				<max_ups>50</max_ups>
				<max_buffer_size>0</max_buffer_size>
				<cycle_buffer>1</cycle_buffer>
				<cmax>100000</cmax>
			</qn_method>
		</solver>
	</Control>
	<Globals>
		<Constants>
			<T>0</T>
			<R>0</R>
			<Fc>0</Fc>
		</Constants>
	</Globals>
	<Material>
		<material id="1" name="Material1" type="biphasic-FSI">
			<phi0>0</phi0>
			<solid type="neo-Hookean">
				<density>0</density>
				<E>1</E>
				<v>0</v>
			</solid>
			<fluid>
				<density>0</density>
				<k>1e+12</k>
				<viscous type="Newtonian fluid">
					<kappa>0</kappa>
					<mu>0</mu>
				</viscous>
			</fluid>
			<permeability type="perm-Holmes-Mow">
				<perm>1</perm>
				<M>0</M>
				<alpha>0.5</alpha>
			</permeability>
		</material>
	</Material>
	<Mesh>
		<Nodes name="Object01">
			<node id="1">-0.5,-0.5,0</node>
			<node id="2">-0.5,-0.5,0.0023118787</node>
			<node id="3">-0.5,-0.5,0.0046815543</node>
			<node id="4">-0.5,-0.5,0.0071104718</node>
			<node id="5">-0.5,-0.5,0.0096001122</node>
			<node id="6">-0.5,-0.5,0.012151994</node>
			<node id="7">-0.5,-0.5,0.014767672</node>
			<node id="8">-0.5,-0.5,0.017448743</node>
			<node id="9">-0.5,-0.5,0.02019684</node>
			<node id="10">-0.5,-0.5,0.02301364</node>
			<node id="11">-0.5,-0.5,0.025900859</node>
			<node id="12">-0.5,-0.5,0.028860259</node>
			<node id="13">-0.5,-0.5,0.031893644</node>
			<node id="14">-0.5,-0.5,0.035002864</node>
			<node id="15">-0.5,-0.5,0.038189814</node>
			<node id="16">-0.5,-0.5,0.041456438</node>
			<node id="17">-0.5,-0.5,0.044804728</node>
			<node id="18">-0.5,-0.5,0.048236725</node>
			<node id="19">-0.5,-0.5,0.051754522</node>
			<node id="20">-0.5,-0.5,0.055360263</node>
<!-- ... 384 like lines cut -->
		</Nodes>
		<Elements type="hex8" name="Part1">
			<elem id="1">1,203,304,102,2,204,305,103</elem>
			<elem id="2">2,204,305,103,3,205,306,104</elem>
			<elem id="3">3,205,306,104,4,206,307,105</elem>
			<elem id="4">4,206,307,105,5,207,308,106</elem>
			<elem id="5">5,207,308,106,6,208,309,107</elem>
			<elem id="6">6,208,309,107,7,209,310,108</elem>
			<elem id="7">7,209,310,108,8,210,311,109</elem>
			<elem id="8">8,210,311,109,9,211,312,110</elem>
			<elem id="9">9,211,312,110,10,212,313,111</elem>
			<elem id="10">10,212,313,111,11,213,314,112</elem>
			<elem id="11">11,213,314,112,12,214,315,113</elem>
			<elem id="12">12,214,315,113,13,215,316,114</elem>
			<elem id="13">13,215,316,114,14,216,317,115</elem>
			<elem id="14">14,216,317,115,15,217,318,116</elem>
			<elem id="15">15,217,318,116,16,218,319,117</elem>
			<elem id="16">16,218,319,117,17,219,320,118</elem>
			<elem id="17">17,219,320,118,18,220,321,119</elem>
			<elem id="18">18,220,321,119,19,221,322,120</elem>
			<elem id="19">19,221,322,120,20,222,323,121</elem>
			<elem id="20">20,222,323,121,21,223,324,122</elem>
<!-- ... 80 like lines cut -->
		</Elements>
		<NodeSet name="FixedDisplacement1">
			1, 2, 3, 4, 5, 6, 7, 8,
			9, 10, 11, 12, 13, 14, 15, 16,
			17, 18, 19, 20, 21, 22, 23, 24,
			25, 26, 27, 28, 29, 30, 31, 32,
			33, 34, 35, 36, 37, 38, 39, 40,
			41, 42, 43, 44, 45, 46, 47, 48,
			49, 50, 51, 52, 53, 54, 55, 56,
			57, 58, 59, 60, 61, 62, 63, 64,
			65, 66, 67, 68, 69, 70, 71, 72,
			73, 74, 75, 76, 77, 78, 79, 80,
			81, 82, 83, 84, 85, 86, 87, 88,
			89, 90, 91, 92, 93, 94, 95, 96,
			97, 98, 99, 100, 101, 102, 103, 104,
			105, 106, 107, 108, 109, 110, 111, 112,
			113, 114, 115, 116, 117, 118, 119, 120,
			121, 122, 123, 124, 125, 126, 127, 128,
			129, 130, 131, 132, 133, 134, 135, 136,
			137, 138, 139, 140, 141, 142, 143, 144,
			145, 146, 147, 148, 149, 150, 151, 152,
			153, 154, 155, 156, 157, 158, 159, 160,
<!-- ... 31 like lines cut -->
		</NodeSet>
		<NodeSet name="FixedDisplacement2">
			1, 2, 3, 4, 5, 6, 7, 8,
			9, 10, 11, 12, 13, 14, 15, 16,
			17, 18, 19, 20, 21, 22, 23, 24,
			25, 26, 27, 28, 29, 30, 31, 32,
			33, 34, 35, 36, 37, 38, 39, 40,
			41, 42, 43, 44, 45, 46, 47, 48,
			49, 50, 51, 52, 53, 54, 55, 56,
			57, 58, 59, 60, 61, 62, 63, 64,
			65, 66, 67, 68, 69, 70, 71, 72,
			73, 74, 75, 76, 77, 78, 79, 80,
			81, 82, 83, 84, 85, 86, 87, 88,
			89, 90, 91, 92, 93, 94, 95, 96,
			97, 98, 99, 100, 101, 102, 103, 104,
			105, 106, 107, 108, 109, 110, 111, 112,
			113, 114, 115, 116, 117, 118, 119, 120,
			121, 122, 123, 124, 125, 126, 127, 128,
			129, 130, 131, 132, 133, 134, 135, 136,
			137, 138, 139, 140, 141, 142, 143, 144,
			145, 146, 147, 148, 149, 150, 151, 152,
			153, 154, 155, 156, 157, 158, 159, 160,
<!-- ... 31 like lines cut -->
		</NodeSet>
		<NodeSet name="FixedDisplacement3">
			1, 102, 203, 304
		</NodeSet>
		<NodeSet name="FixedEffectiveFluidPressure1">
			1, 102, 203, 304
		</NodeSet>
		<NodeSet name="PrescribedDisplacement1">
			101, 202, 303, 404
		</NodeSet>
	</Mesh>
	<MeshDomains>
		<SolidDomain name="Part1" mat="Material1"/>
	</MeshDomains>
	<Boundary>
		<bc name="FixedDisplacement01" node_set="FixedDisplacement1" type="zero displacement">
			<x_dof>0</x_dof>
			<y_dof>1</y_dof>
			<z_dof>0</z_dof>
		</bc>
		<bc name="FixedDisplacement02" node_set="FixedDisplacement2" type="zero displacement">
			<x_dof>1</x_dof>
			<y_dof>0</y_dof>
			<z_dof>0</z_dof>
		</bc>
		<bc name="FixedDisplacement03" node_set="FixedDisplacement3" type="zero displacement">
			<x_dof>0</x_dof>
			<y_dof>0</y_dof>
			<z_dof>1</z_dof>
		</bc>
		<bc name="FixedFluidVelocity01" node_set="FixedDisplacement1" type="zero fluid velocity">
			<wx_dof>0</wx_dof>
			<wy_dof>1</wy_dof>
			<wz_dof>0</wz_dof>
		</bc>
		<bc name="FixedFluidVelocity02" node_set="FixedDisplacement2" type="zero fluid velocity">
			<wx_dof>1</wx_dof>
			<wy_dof>0</wy_dof>
			<wz_dof>0</wz_dof>
		</bc>
		<bc name="FixedFluidDilatation01" node_set="FixedEffectiveFluidPressure1" type="zero fluid dilatation"/>
		<bc name="PrescribedDisplacement1" node_set="PrescribedDisplacement1" type="prescribed displacement">
			<dof>z</dof>
			<value lc="1">-0.9999</value>
			<relative>0</relative>
		</bc>
	</Boundary>
	<LoadData>
		<load_controller id="1" name="LC1" type="loadcurve">
			<interpolate>SMOOTH</interpolate>
			<extend>CONSTANT</extend>
			<points>
				<pt>0,0</pt>
				<pt>1,1</pt>
			</points>
		</load_controller>
	</LoadData>
	<Output>
		<plotfile type="febio">
			<var type="acceleration"/>
			<var type="displacement"/>
			<var type="relative volume"/>
			<var type="stress"/>
			<var type="velocity"/>
			<var type="fluid pressure"/>
			<var type="fluid flux"/>
			<var type="fluid acceleration"/>
			<var type="fluid density"/>
			<var type="fluid dilatation"/>
			<var type="fluid rate of deformation"/>
			<var type="fluid stress"/>
			<var type="fluid velocity"/>
			<var type="porosity"/>
			<var type="fluid vorticity"/>
			<var type="nodal fluid velocity"/>
			<var type="nodal fluid flux"/>
			<var type="permeability"/>
		</plotfile>
	</Output>
</febio_spec>
