<?xml version="1.0" encoding="ISO-8859-1"?>
<!--
BFSI 1D flow of fluid through a porous domain driven by gravity. 0 p at both ends
-->
<febio_spec version="3.0">
	<Module type="fluid-FSI"/>
	<Control>
		<analysis>DYNAMIC</analysis>
		<time_steps>100</time_steps>
		<step_size>0.01</step_size>
		<solver>
			<max_refs>5</max_refs>
			<max_ups>50</max_ups>
			<diverge_reform>0</diverge_reform>
			<reform_each_time_step>0</reform_each_time_step>
			<dtol>0.001</dtol>
			<vtol>0.001</vtol>
			<ftol>0.001</ftol>
			<etol>0.01</etol>
			<rtol>0.001</rtol>
			<lstol>0.9</lstol>
			<min_residual>1e-20</min_residual>
			<max_residual>1e+20</max_residual>
			<rhoi>0</rhoi>
			<qnmethod>BROYDEN</qnmethod>
			<symmetric_stiffness>0</symmetric_stiffness>
		</solver>
		<time_stepper>
			<dtmin>0.001</dtmin>
			<dtmax>0.01</dtmax>
			<max_retries>5</max_retries>
			<opt_iter>50</opt_iter>
		</time_stepper>
	</Control>
	<Globals>
		<Constants>
			<T>0</T>
			<R>0</R>
			<Fc>0</Fc>
		</Constants>
	</Globals>
	<Material>
		<material id="1" name="Material1" type="biphasic-FSI">
			<phi0>0</phi0>
			<fluid type="fluid">
				<density>1000</density>
				<k>1e+09</k>
				<viscous type="Newtonian fluid">
					<mu>0.01</mu>
					<kappa>0</kappa>
				</viscous>
			</fluid>
			<solid type="neo-Hookean">
				<density>0</density>
				<E>1e-09</E>
				<v>0</v>
			</solid>
			<permeability type="perm-const-iso">
				<perm>0</perm>
			</permeability>
		</material>
		<material id="2" name="Material2" type="biphasic-FSI">
			<phi0>0</phi0>
			<fluid type="fluid">
				<density>1000</density>
				<k>1e+09</k>
				<viscous type="Newtonian fluid">
					<mu>0.01</mu>
					<kappa>0</kappa>
				</viscous>
			</fluid>
			<solid type="neo-Hookean">
				<density>0</density>
				<E>1e-09</E>
				<v>0</v>
			</solid>
			<permeability type="perm-const-iso">
				<perm>0</perm>
			</permeability>
		</material>
		<material id="3" name="Material3" type="biphasic-FSI">
			<phi0>0.5</phi0>
			<fluid type="fluid">
				<density>1000</density>
				<k>2e+09</k>
				<viscous type="Newtonian fluid">
					<mu>0.01</mu>
					<kappa>0</kappa>
				</viscous>
			</fluid>
			<solid type="neo-Hookean">
				<density>1000</density>
				<E>1000000</E>
				<v>0</v>
			</solid>
			<permeability type="perm-const-iso">
				<perm>1e-06</perm>
			</permeability>
		</material>
	</Material>
	<Mesh>
		<Nodes name="Object01">
			<node id="1">-0.5,-0.5,2.52</node>
			<node id="2">-0.5,-0.5,2.54</node>
			<node id="3">-0.5,-0.5,2.56</node>
			<node id="4">-0.5,-0.5,2.58</node>
			<node id="5">-0.5,-0.5,2.6</node>
			<node id="6">-0.5,-0.5,2.62</node>
			<node id="7">-0.5,-0.5,2.64</node>
			<node id="8">-0.5,-0.5,2.66</node>
			<node id="9">-0.5,-0.5,2.68</node>
			<node id="10">-0.5,-0.5,2.7</node>
			<node id="11">-0.5,-0.5,2.72</node>
			<node id="12">-0.5,-0.5,2.74</node>
			<node id="13">-0.5,-0.5,2.76</node>
			<node id="14">-0.5,-0.5,2.78</node>
			<node id="15">-0.5,-0.5,2.8</node>
			<node id="16">-0.5,-0.5,2.82</node>
			<node id="17">-0.5,-0.5,2.84</node>
			<node id="18">-0.5,-0.5,2.86</node>
			<node id="19">-0.5,-0.5,2.88</node>
			<node id="20">-0.5,-0.5,2.9</node>
<!-- ... 1032 like lines cut -->
		</Nodes>
		<Elements type="hex8" name="Part1">
			<elem id="1">1,201,301,101,2,202,302,102</elem>
			<elem id="2">2,202,302,102,3,203,303,103</elem>
			<elem id="3">3,203,303,103,4,204,304,104</elem>
			<elem id="4">4,204,304,104,5,205,305,105</elem>
			<elem id="5">5,205,305,105,6,206,306,106</elem>
			<elem id="6">6,206,306,106,7,207,307,107</elem>
			<elem id="7">7,207,307,107,8,208,308,108</elem>
			<elem id="8">8,208,308,108,9,209,309,109</elem>
			<elem id="9">9,209,309,109,10,210,310,110</elem>
			<elem id="10">10,210,310,110,11,211,311,111</elem>
			<elem id="11">11,211,311,111,12,212,312,112</elem>
			<elem id="12">12,212,312,112,13,213,313,113</elem>
			<elem id="13">13,213,313,113,14,214,314,114</elem>
			<elem id="14">14,214,314,114,15,215,315,115</elem>
			<elem id="15">15,215,315,115,16,216,316,116</elem>
			<elem id="16">16,216,316,116,17,217,317,117</elem>
			<elem id="17">17,217,317,117,18,218,318,118</elem>
			<elem id="18">18,218,318,118,19,219,319,119</elem>
			<elem id="19">19,219,319,119,20,220,320,120</elem>
			<elem id="20">20,220,320,120,21,221,321,121</elem>
<!-- ... 83 like lines cut -->
		</Elements>
		<Elements type="hex8" name="Part2">
			<elem id="104">413,613,713,513,414,614,714,514</elem>
			<elem id="105">414,614,714,514,415,615,715,515</elem>
			<elem id="106">415,615,715,515,416,616,716,516</elem>
			<elem id="107">416,616,716,516,417,617,717,517</elem>
			<elem id="108">417,617,717,517,418,618,718,518</elem>
			<elem id="109">418,618,718,518,419,619,719,519</elem>
			<elem id="110">419,619,719,519,420,620,720,520</elem>
			<elem id="111">420,620,720,520,421,621,721,521</elem>
			<elem id="112">421,621,721,521,422,622,722,522</elem>
			<elem id="113">422,622,722,522,423,623,723,523</elem>
			<elem id="114">423,623,723,523,424,624,724,524</elem>
			<elem id="115">424,624,724,524,425,625,725,525</elem>
			<elem id="116">425,625,725,525,426,626,726,526</elem>
			<elem id="117">426,626,726,526,427,627,727,527</elem>
			<elem id="118">427,627,727,527,428,628,728,528</elem>
			<elem id="119">428,628,728,528,429,629,729,529</elem>
			<elem id="120">429,629,729,529,430,630,730,530</elem>
			<elem id="121">430,630,730,530,431,631,731,531</elem>
			<elem id="122">431,631,731,531,432,632,732,532</elem>
			<elem id="123">432,632,732,532,433,633,733,533</elem>
<!-- ... 83 like lines cut -->
		</Elements>
		<Elements type="hex8" name="Part3">
			<elem id="207">826,928,979,877,827,929,980,878</elem>
			<elem id="208">827,929,980,878,828,930,981,879</elem>
			<elem id="209">828,930,981,879,829,931,982,880</elem>
			<elem id="210">829,931,982,880,830,932,983,881</elem>
			<elem id="211">830,932,983,881,831,933,984,882</elem>
			<elem id="212">831,933,984,882,832,934,985,883</elem>
			<elem id="213">832,934,985,883,833,935,986,884</elem>
			<elem id="214">833,935,986,884,834,936,987,885</elem>
			<elem id="215">834,936,987,885,835,937,988,886</elem>
			<elem id="216">835,937,988,886,836,938,989,887</elem>
			<elem id="217">836,938,989,887,837,939,990,888</elem>
			<elem id="218">837,939,990,888,838,940,991,889</elem>
			<elem id="219">838,940,991,889,839,941,992,890</elem>
			<elem id="220">839,941,992,890,840,942,993,891</elem>
			<elem id="221">840,942,993,891,841,943,994,892</elem>
			<elem id="222">841,943,994,892,842,944,995,893</elem>
			<elem id="223">842,944,995,893,843,945,996,894</elem>
			<elem id="224">843,945,996,894,844,946,997,895</elem>
			<elem id="225">844,946,997,895,845,947,998,896</elem>
			<elem id="226">845,947,998,896,846,948,999,897</elem>
<!-- ... 36 like lines cut -->
		</Elements>
		<Surface name="FixedDisplacement1">
			<quad4 id="1">1,201,202,2</quad4>
			<quad4 id="2">2,202,203,3</quad4>
			<quad4 id="3">3,203,204,4</quad4>
			<quad4 id="4">4,204,205,5</quad4>
			<quad4 id="5">5,205,206,6</quad4>
			<quad4 id="6">6,206,207,7</quad4>
			<quad4 id="7">7,207,208,8</quad4>
			<quad4 id="8">8,208,209,9</quad4>
			<quad4 id="9">9,209,210,10</quad4>
			<quad4 id="10">10,210,211,11</quad4>
			<quad4 id="11">11,211,212,12</quad4>
			<quad4 id="12">12,212,213,13</quad4>
			<quad4 id="13">13,213,214,14</quad4>
			<quad4 id="14">14,214,215,15</quad4>
			<quad4 id="15">15,215,216,16</quad4>
			<quad4 id="16">16,216,217,17</quad4>
			<quad4 id="17">17,217,218,18</quad4>
			<quad4 id="18">18,218,219,19</quad4>
			<quad4 id="19">19,219,220,20</quad4>
			<quad4 id="20">20,220,221,21</quad4>
<!-- ... 1032 like lines cut -->
		</Surface>
		<Surface name="FixedFluidVelocity1">
			<quad4 id="1">1,201,202,2</quad4>
			<quad4 id="2">2,202,203,3</quad4>
			<quad4 id="3">3,203,204,4</quad4>
			<quad4 id="4">4,204,205,5</quad4>
			<quad4 id="5">5,205,206,6</quad4>
			<quad4 id="6">6,206,207,7</quad4>
			<quad4 id="7">7,207,208,8</quad4>
			<quad4 id="8">8,208,209,9</quad4>
			<quad4 id="9">9,209,210,10</quad4>
			<quad4 id="10">10,210,211,11</quad4>
			<quad4 id="11">11,211,212,12</quad4>
			<quad4 id="12">12,212,213,13</quad4>
			<quad4 id="13">13,213,214,14</quad4>
			<quad4 id="14">14,214,215,15</quad4>
			<quad4 id="15">15,215,216,16</quad4>
			<quad4 id="16">16,216,217,17</quad4>
			<quad4 id="17">17,217,218,18</quad4>
			<quad4 id="18">18,218,219,19</quad4>
			<quad4 id="19">19,219,220,20</quad4>
			<quad4 id="20">20,220,221,21</quad4>
<!-- ... 1032 like lines cut -->
		</Surface>
		<Surface name="FixedFluidDilatation1">
			<quad4 id="1">100,300,400,200</quad4>
		</Surface>
		<Surface name="FixedFluidDilatation2">
			<quad4 id="1">513,713,613,413</quad4>
		</Surface>
		<ElementSet name="BodyLoad1">
			<e id="1"/>
			<e id="2"/>
			<e id="3"/>
			<e id="4"/>
			<e id="5"/>
			<e id="6"/>
			<e id="7"/>
			<e id="8"/>
			<e id="9"/>
			<e id="10"/>
			<e id="11"/>
			<e id="12"/>
			<e id="13"/>
			<e id="14"/>
			<e id="15"/>
			<e id="16"/>
			<e id="17"/>
			<e id="18"/>
			<e id="19"/>
			<e id="20"/>
<!-- ... 242 like lines cut -->
		</ElementSet>
	</Mesh>
	<MeshDomains>
		<SolidDomain name="Part1" mat="Material1"/>
		<SolidDomain name="Part2" mat="Material2"/>
		<SolidDomain name="Part3" mat="Material3"/>
	</MeshDomains>
	<Boundary>
		<bc name="FixedDisplacement1" type="fix" node_set="@surface:FixedDisplacement1">
			<dofs>x,y,z</dofs>
		</bc>
		<bc name="FixedFluidVelocity1" type="fix" node_set="@surface:FixedFluidVelocity1">
			<dofs>wx,wy</dofs>
		</bc>
		<bc name="FixedFluidDilatation1" type="fix" node_set="@surface:FixedFluidDilatation1">
			<dofs>ef</dofs>
		</bc>
		<bc name="FixedFluidDilatation2" type="fix" node_set="@surface:FixedFluidDilatation2">
			<dofs>ef</dofs>
		</bc>
	</Boundary>
	<Loads>
		<body_load type="const" elem_set="BodyLoad1">
			<x lc="1">0</x>
			<y lc="2">0</y>
			<z lc="3">9.81</z>
		</body_load>
	</Loads>
	<LoadData>
		<load_controller id="1" type="loadcurve">
			<interpolate>STEP</interpolate>
			<points>
				<point>0,0</point>
				<point>1,1</point>
			</points>
		</load_controller>
		<load_controller id="2" type="loadcurve">
			<interpolate>STEP</interpolate>
			<points>
				<point>0,0</point>
				<point>1,1</point>
			</points>
		</load_controller>
		<load_controller id="3" type="loadcurve">
			<interpolate>STEP</interpolate>
			<points>
				<point>0,0</point>
				<point>1,1</point>
			</points>
		</load_controller>
	</LoadData>
	<Output>
		<plotfile type="febio">
			<var type="acceleration"/>
			<var type="displacement"/>
			<var type="velocity"/>
			<var type="fluid pressure"/>
			<var type="fluid acceleration"/>
			<var type="fluid dilatation"/>
			<var type="fluid rate of deformation"/>
			<var type="fluid stress"/>
			<var type="fluid velocity"/>
			<var type="fluid volume ratio"/>
			<var type="fluid vorticity"/>
			<var type="nodal fluid flux"/>
		</plotfile>
	</Output>
</febio_spec>
