<?xml version="1.0" encoding="ISO-8859-1"?>
<!--
1D Permeation with prescribed upstream pressure and unclamped condition.
This problem demonstrates how to prescribe boundary conditions for a permeation problem
where the fluid pressure is prescribed upstream, but the solid displacement on the upstream
surface is unconstrained.  The latter boundary condition is satisfied by prescribing a zero
value for the effective traction on the upstream surface.
-->
<febio_spec version="4.0">
	<Module type="biphasic"/>
	<Control>
		<analysis>TRANSIENT</analysis>
		<time_steps>10000</time_steps>
		<step_size>0.1</step_size>
		<plot_zero_state>0</plot_zero_state>
		<plot_range>0,-1</plot_range>
		<plot_level>PLOT_MAJOR_ITRS</plot_level>
		<output_level>OUTPUT_MAJOR_ITRS</output_level>
		<plot_stride>1</plot_stride>
		<adaptor_re_solve>1</adaptor_re_solve>
		<time_stepper type="default">
			<max_retries>5</max_retries>
			<opt_iter>10</opt_iter>
			<dtmin>0.01</dtmin>
			<dtmax lc="1">0</dtmax>
			<aggressiveness>0</aggressiveness>
			<cutback>0.5</cutback>
			<dtforce>0</dtforce>
		</time_stepper>
		<solver type="biphasic">
			<symmetric_stiffness>non-symmetric</symmetric_stiffness>
			<equation_scheme>staggered</equation_scheme>
			<equation_order>default</equation_order>
			<optimize_bw>0</optimize_bw>
			<lstol>0.9</lstol>
			<lsmin>0.01</lsmin>
			<lsiter>5</lsiter>
			<max_refs>15</max_refs>
			<check_zero_diagonal>0</check_zero_diagonal>
			<zero_diagonal_tol>0</zero_diagonal_tol>
			<force_partition>0</force_partition>
			<reform_each_time_step>1</reform_each_time_step>
			<reform_augment>0</reform_augment>
			<diverge_reform>1</diverge_reform>
			<min_residual>1e-20</min_residual>
			<max_residual>0</max_residual>
			<dtol>0.001</dtol>
			<etol>0.01</etol>
			<rtol>0</rtol>
			<rhoi>-2</rhoi>
			<alpha>1</alpha>
			<beta>0.25</beta>
			<gamma>0.5</gamma>
			<logSolve>0</logSolve>
			<arc_length>0</arc_length>
			<arc_length_scale>0</arc_length_scale>
			<ptol>0.01</ptol>
			<mixed_formulation>0</mixed_formulation>
			<qn_method type="Broyden">
				<max_ups>0</max_ups>
				<max_buffer_size>0</max_buffer_size>
				<cycle_buffer>1</cycle_buffer>
				<cmax>100000</cmax>
			</qn_method>
		</solver>
	</Control>
	<Globals>
		<Constants>
			<T>0</T>
			<R>0</R>
			<Fc>0</Fc>
		</Constants>
	</Globals>
	<Material>
		<material id="1" name="Biphasic material" type="biphasic">
			<phi0>0.2</phi0>
			<fluid_density>1</fluid_density>
			<tau>0</tau>
			<solid type="neo-Hookean">
				<density>1</density>
				<E>1</E>
				<v>0</v>
			</solid>
			<permeability type="perm-const-iso">
				<perm>0.001</perm>
			</permeability>
		</material>
	</Material>
	<Mesh>
		<Nodes name="Object01">
			<node id="1">-0.5,-0.5,0</node>
			<node id="2">-0.5,-0.5,0.0071619218</node>
			<node id="3">-0.5,-0.5,0.017188612</node>
			<node id="4">-0.5,-0.5,0.031225979</node>
			<node id="5">-0.5,-0.5,0.050878292</node>
			<node id="6">-0.5,-0.5,0.078391531</node>
			<node id="7">-0.5,-0.5,0.11691007</node>
			<node id="8">-0.5,-0.5,0.17083601</node>
			<node id="9">-0.5,-0.5,0.24633234</node>
			<node id="10">-0.5,-0.5,0.3520272</node>
			<node id="11">-0.5,-0.5,0.5</node>
			<node id="12">-0.5,-0.5,0.6479728</node>
			<node id="13">-0.5,-0.5,0.75366766</node>
			<node id="14">-0.5,-0.5,0.82916399</node>
			<node id="15">-0.5,-0.5,0.88308993</node>
			<node id="16">-0.5,-0.5,0.92160847</node>
			<node id="17">-0.5,-0.5,0.94912171</node>
			<node id="18">-0.5,-0.5,0.96877402</node>
			<node id="19">-0.5,-0.5,0.98281139</node>
			<node id="20">-0.5,-0.5,0.99283808</node>
<!-- ... 64 like lines cut -->
		</Nodes>
		<Elements type="hex8" name="Part1">
			<elem id="1">1,43,64,22,2,44,65,23</elem>
			<elem id="2">2,44,65,23,3,45,66,24</elem>
			<elem id="3">3,45,66,24,4,46,67,25</elem>
			<elem id="4">4,46,67,25,5,47,68,26</elem>
			<elem id="5">5,47,68,26,6,48,69,27</elem>
			<elem id="6">6,48,69,27,7,49,70,28</elem>
			<elem id="7">7,49,70,28,8,50,71,29</elem>
			<elem id="8">8,50,71,29,9,51,72,30</elem>
			<elem id="9">9,51,72,30,10,52,73,31</elem>
			<elem id="10">10,52,73,31,11,53,74,32</elem>
			<elem id="11">11,53,74,32,12,54,75,33</elem>
			<elem id="12">12,54,75,33,13,55,76,34</elem>
			<elem id="13">13,55,76,34,14,56,77,35</elem>
			<elem id="14">14,56,77,35,15,57,78,36</elem>
			<elem id="15">15,57,78,36,16,58,79,37</elem>
			<elem id="16">16,58,79,37,17,59,80,38</elem>
			<elem id="17">17,59,80,38,18,60,81,39</elem>
			<elem id="18">18,60,81,39,19,61,82,40</elem>
			<elem id="19">19,61,82,40,20,62,83,41</elem>
			<elem id="20">20,62,83,41,21,63,84,42</elem>
		</Elements>
		<NodeSet name="FixedDisplacement01">
			1, 2, 3, 4, 5, 6, 7, 8,
			9, 10, 11, 12, 13, 14, 15, 16,
			17, 18, 19, 20, 21, 22, 23, 24,
			25, 26, 27, 28, 29, 30, 31, 32,
			33, 34, 35, 36, 37, 38, 39, 40,
			41, 42, 43, 44, 45, 46, 47, 48,
			49, 50, 51, 52, 53, 54, 55, 56,
			57, 58, 59, 60, 61, 62, 63, 64,
			65, 66, 67, 68, 69, 70, 71, 72,
			73, 74, 75, 76, 77, 78, 79, 80,
			81, 82, 83, 84
		</NodeSet>
		<NodeSet name="FixedDisplacement02">
			1, 2, 3, 4, 5, 6, 7, 8,
			9, 10, 11, 12, 13, 14, 15, 16,
			17, 18, 19, 20, 21, 22, 23, 24,
			25, 26, 27, 28, 29, 30, 31, 32,
			33, 34, 35, 36, 37, 38, 39, 40,
			41, 42, 43, 44, 45, 46, 47, 48,
			49, 50, 51, 52, 53, 54, 55, 56,
			57, 58, 59, 60, 61, 62, 63, 64,
			65, 66, 67, 68, 69, 70, 71, 72,
			73, 74, 75, 76, 77, 78, 79, 80,
			81, 82, 83, 84
		</NodeSet>
		<NodeSet name="FixedFluidPressure01">
			21, 42, 63, 84
		</NodeSet>
		<NodeSet name="FixedDisplacement03">
			21, 42, 63, 84
		</NodeSet>
		<NodeSet name="PrescribedBC08">
			1, 22, 43, 64
		</NodeSet>
		<Surface name="NormalTraction1">
			<quad4 id="1">22,64,43,1</quad4>
		</Surface>
		<ElementSet name="unnamed_set01">
			1
		</ElementSet>
	</Mesh>
	<MeshDomains>
		<SolidDomain name="Part1" mat="Biphasic material"/>
	</MeshDomains>
	<Boundary>
		<bc name="FixedDisplacement01" node_set="FixedDisplacement01" type="zero displacement">
			<x_dof>1</x_dof>
			<y_dof>0</y_dof>
			<z_dof>0</z_dof>
		</bc>
		<bc name="FixedDisplacement02" node_set="FixedDisplacement02" type="zero displacement">
			<x_dof>0</x_dof>
			<y_dof>1</y_dof>
			<z_dof>0</z_dof>
		</bc>
		<bc name="FixedFluidPressure01" node_set="FixedFluidPressure01" type="zero fluid pressure"/>
		<bc name="FixedDisplacement03" node_set="FixedDisplacement03" type="zero displacement">
			<x_dof>0</x_dof>
			<y_dof>0</y_dof>
			<z_dof>1</z_dof>
		</bc>
		<bc name="PrescribedBC08" node_set="PrescribedBC08" type="prescribed fluid pressure">
			<value lc="2">1</value>
			<relative>0</relative>
		</bc>
	</Boundary>
	<Loads>
		<surface_load name="NormalTraction0" surface="NormalTraction1" type="normal_traction">
			<traction lc="3">1</traction>
			<linear>0</linear>
			<shell_bottom>0</shell_bottom>
			<effective>1</effective>
		</surface_load>
	</Loads>
	<LoadData>
		<load_controller id="1" name="LC1" type="loadcurve">
			<interpolate>STEP</interpolate>
			<extend>CONSTANT</extend>
			<points>
				<pt>0,0</pt>
				<pt>1,0.1</pt>
				<pt>1000,100</pt>
			</points>
		</load_controller>
		<load_controller id="2" name="LC2" type="loadcurve">
			<interpolate>LINEAR</interpolate>
			<extend>CONSTANT</extend>
			<points>
				<pt>0,0</pt>
				<pt>1,0.2</pt>
			</points>
		</load_controller>
		<load_controller id="3" name="LC3" type="loadcurve">
			<interpolate>SMOOTH</interpolate>
			<extend>CONSTANT</extend>
			<points>
				<pt>0,0</pt>
				<pt>1,0</pt>
			</points>
		</load_controller>
	</LoadData>
	<Output>
		<plotfile type="febio">
			<var type="displacement"/>
			<var type="relative volume"/>
			<var type="stress"/>
			<var type="effective fluid pressure"/>
			<var type="fluid pressure"/>
			<var type="fluid flux"/>
		</plotfile>
	</Output>
</febio_spec>
