<?xml version="1.0" encoding="ISO-8859-1"?>
<!--
Two biphasic bodies, one with hexahedral mesh and the other with tetrahedral mesh, tied at interface.
The body with hexahedral mesh is much less permeable than the one with the tetrahedral mesh.
A normal mixture traction is prescribed on the less permeable body and a transient response ensues.

Continuity of fluid pressure is enforced across the tied contact interface.  Due to the significant
disparity in permeability between the tied regions, large gradients in fluid pressure are
observed across the interface.
-->
<febio_spec version="3.0">
	<Module type="biphasic"/>
	<Control>
		<analysis>TRANSIENT</analysis>
		<time_steps>100000</time_steps>
		<step_size>1</step_size>
		<solver>
			<max_refs>15</max_refs>
			<max_ups>10</max_ups>
			<diverge_reform>1</diverge_reform>
			<reform_each_time_step>1</reform_each_time_step>
			<dtol>0.001</dtol>
			<etol>0.01</etol>
			<rtol>0</rtol>
			<ptol>0.01</ptol>
			<lstol>0.9</lstol>
			<min_residual>1e-20</min_residual>
			<qnmethod>BROYDEN</qnmethod>
			<mixed_formulation>default</mixed_formulation>
			<symmetric_stiffness>0</symmetric_stiffness>
		</solver>
		<time_stepper>
			<dtmin>0.01</dtmin>
			<dtmax lc="1"></dtmax>
			<max_retries>5</max_retries>
			<opt_iter>10</opt_iter>
		</time_stepper>
	</Control>
	<Globals>
		<Constants>
			<T>0</T>
			<R>0</R>
			<Fc>0</Fc>
		</Constants>
	</Globals>
	<Material>
		<material id="1" name="Biphasic" type="biphasic">
			<phi0>0.2</phi0>
			<fluid_density>1</fluid_density>
			<solid type="neo-Hookean">
				<density>1</density>
				<E>1</E>
				<v>0</v>
			</solid>
			<permeability type="perm-const-iso">
				<perm>0.001</perm>
			</permeability>
		</material>
		<material id="2" name="Biphasic permeable" type="biphasic">
			<phi0>0.1</phi0>
			<fluid_density>1</fluid_density>
			<solid type="neo-Hookean">
				<density>1</density>
				<E>1</E>
				<v>0.3</v>
			</solid>
			<permeability type="perm-const-iso">
				<perm>1</perm>
			</permeability>
		</material>
	</Material>
	<Mesh>
		<Nodes name="Object01">
			<node id="1">-10,0,0</node>
			<node id="2">-10,0,1</node>
			<node id="3">-10,0.060145125,0</node>
			<node id="4">-10,0.060145125,1</node>
			<node id="5">-10,0.13532653,0</node>
			<node id="6">-10,0.13532653,1</node>
			<node id="7">-10,0.22930329,0</node>
			<node id="8">-10,0.22930329,1</node>
			<node id="9">-10,0.34677424,0</node>
			<node id="10">-10,0.34677424,1</node>
			<node id="11">-10,0.49361292,0</node>
			<node id="12">-10,0.49361292,1</node>
			<node id="13">-10,0.67716127,0</node>
			<node id="14">-10,0.67716127,1</node>
			<node id="15">-10,0.90659672,0</node>
			<node id="16">-10,0.90659672,1</node>
			<node id="17">-10,1.193391,0</node>
			<node id="18">-10,1.193391,1</node>
			<node id="19">-10,1.5518839,0</node>
			<node id="20">-10,1.5518839,1</node>
<!-- ... 2164 like lines cut -->
		</Nodes>
		<Elements type="hex8" name="Part5">
			<elem id="1">1,43,45,3,2,44,46,4</elem>
			<elem id="2">3,45,47,5,4,46,48,6</elem>
			<elem id="3">5,47,49,7,6,48,50,8</elem>
			<elem id="4">7,49,51,9,8,50,52,10</elem>
			<elem id="5">9,51,53,11,10,52,54,12</elem>
			<elem id="6">11,53,55,13,12,54,56,14</elem>
			<elem id="7">13,55,57,15,14,56,58,16</elem>
			<elem id="8">15,57,59,17,16,58,60,18</elem>
			<elem id="9">17,59,61,19,18,60,62,20</elem>
			<elem id="10">19,61,63,21,20,62,64,22</elem>
			<elem id="11">21,63,65,23,22,64,66,24</elem>
			<elem id="12">23,65,67,25,24,66,68,26</elem>
			<elem id="13">25,67,69,27,26,68,70,28</elem>
			<elem id="14">27,69,71,29,28,70,72,30</elem>
			<elem id="15">29,71,73,31,30,72,74,32</elem>
			<elem id="16">31,73,75,33,32,74,76,34</elem>
			<elem id="17">33,75,77,35,34,76,78,36</elem>
			<elem id="18">35,77,79,37,36,78,80,38</elem>
			<elem id="19">37,79,81,39,38,80,82,40</elem>
			<elem id="20">39,81,83,41,40,82,84,42</elem>
<!-- ... 780 like lines cut -->
		</Elements>
		<Elements type="tet4" name="Part6">
			<elem id="801">1745,1747,1725,1748</elem>
			<elem id="802">1723,1745,1725,1748</elem>
			<elem id="803">1723,1748,1725,1726</elem>
			<elem id="804">1745,1746,1748,1723</elem>
			<elem id="805">1724,1726,1746,1723</elem>
			<elem id="806">1746,1726,1748,1723</elem>
			<elem id="807">1747,1749,1727,1750</elem>
			<elem id="808">1725,1747,1727,1750</elem>
			<elem id="809">1725,1750,1727,1728</elem>
			<elem id="810">1747,1748,1750,1725</elem>
			<elem id="811">1726,1728,1748,1725</elem>
			<elem id="812">1748,1728,1750,1725</elem>
			<elem id="813">1749,1751,1729,1752</elem>
			<elem id="814">1727,1749,1729,1752</elem>
			<elem id="815">1727,1752,1729,1730</elem>
			<elem id="816">1749,1750,1752,1727</elem>
			<elem id="817">1728,1730,1750,1727</elem>
			<elem id="818">1750,1730,1752,1727</elem>
			<elem id="819">1751,1753,1731,1754</elem>
			<elem id="820">1729,1751,1731,1754</elem>
<!-- ... 1180 like lines cut -->
		</Elements>
		<NodeSet name="FixedDisplacement01">
			<n id="1"/>
			<n id="2"/>
			<n id="3"/>
			<n id="4"/>
			<n id="5"/>
			<n id="6"/>
			<n id="7"/>
			<n id="8"/>
			<n id="9"/>
			<n id="10"/>
			<n id="11"/>
			<n id="12"/>
			<n id="13"/>
			<n id="14"/>
			<n id="15"/>
			<n id="16"/>
			<n id="17"/>
			<n id="18"/>
			<n id="19"/>
			<n id="20"/>
<!-- ... 2164 like lines cut -->
		</NodeSet>
		<NodeSet name="FixedDisplacement02">
			<n id="1723"/>
			<n id="1724"/>
			<n id="1745"/>
			<n id="1746"/>
			<n id="1767"/>
			<n id="1768"/>
			<n id="1789"/>
			<n id="1790"/>
			<n id="1811"/>
			<n id="1812"/>
			<n id="1833"/>
			<n id="1834"/>
			<n id="1855"/>
			<n id="1856"/>
			<n id="1877"/>
			<n id="1878"/>
			<n id="1899"/>
			<n id="1900"/>
			<n id="1921"/>
			<n id="1922"/>
<!-- ... 22 like lines cut -->
		</NodeSet>
		<NodeSet name="FixedDisplacement03">
			<n id="1723"/>
			<n id="1724"/>
			<n id="1745"/>
			<n id="1746"/>
			<n id="1767"/>
			<n id="1768"/>
			<n id="1789"/>
			<n id="1790"/>
			<n id="1811"/>
			<n id="1812"/>
			<n id="1833"/>
			<n id="1834"/>
			<n id="1855"/>
			<n id="1856"/>
			<n id="1877"/>
			<n id="1878"/>
			<n id="1899"/>
			<n id="1900"/>
			<n id="1921"/>
			<n id="1922"/>
<!-- ... 22 like lines cut -->
		</NodeSet>
		<NodeSet name="FixedFluidPressure01">
			<n id="1"/>
			<n id="2"/>
			<n id="3"/>
			<n id="4"/>
			<n id="5"/>
			<n id="6"/>
			<n id="7"/>
			<n id="8"/>
			<n id="9"/>
			<n id="10"/>
			<n id="11"/>
			<n id="12"/>
			<n id="13"/>
			<n id="14"/>
			<n id="15"/>
			<n id="16"/>
			<n id="17"/>
			<n id="18"/>
			<n id="19"/>
			<n id="20"/>
<!-- ... 108 like lines cut -->
		</NodeSet>
		<Surface name="surface01">
			<quad4 id="1">83,41,42,84</quad4>
			<quad4 id="2">125,83,84,126</quad4>
			<quad4 id="3">167,125,126,168</quad4>
			<quad4 id="4">209,167,168,210</quad4>
			<quad4 id="5">251,209,210,252</quad4>
			<quad4 id="6">293,251,252,294</quad4>
			<quad4 id="7">335,293,294,336</quad4>
			<quad4 id="8">377,335,336,378</quad4>
			<quad4 id="9">419,377,378,420</quad4>
			<quad4 id="10">461,419,420,462</quad4>
			<quad4 id="11">503,461,462,504</quad4>
			<quad4 id="12">545,503,504,546</quad4>
			<quad4 id="13">587,545,546,588</quad4>
			<quad4 id="14">629,587,588,630</quad4>
			<quad4 id="15">671,629,630,672</quad4>
			<quad4 id="16">713,671,672,714</quad4>
			<quad4 id="17">755,713,714,756</quad4>
			<quad4 id="18">797,755,756,798</quad4>
			<quad4 id="19">839,797,798,840</quad4>
			<quad4 id="20">881,839,840,882</quad4>
<!-- ... 20 like lines cut -->
		</Surface>
		<Surface name="PrimarySurface01">
			<quad4 id="1">1,43,44,2</quad4>
			<quad4 id="2">43,85,86,44</quad4>
			<quad4 id="3">85,127,128,86</quad4>
			<quad4 id="4">127,169,170,128</quad4>
			<quad4 id="5">169,211,212,170</quad4>
			<quad4 id="6">211,253,254,212</quad4>
			<quad4 id="7">253,295,296,254</quad4>
			<quad4 id="8">295,337,338,296</quad4>
			<quad4 id="9">337,379,380,338</quad4>
			<quad4 id="10">379,421,422,380</quad4>
			<quad4 id="11">421,463,464,422</quad4>
			<quad4 id="12">463,505,506,464</quad4>
			<quad4 id="13">505,547,548,506</quad4>
			<quad4 id="14">547,589,590,548</quad4>
			<quad4 id="15">589,631,632,590</quad4>
			<quad4 id="16">631,673,674,632</quad4>
			<quad4 id="17">673,715,716,674</quad4>
			<quad4 id="18">715,757,758,716</quad4>
			<quad4 id="19">757,799,800,758</quad4>
			<quad4 id="20">799,841,842,800</quad4>
<!-- ... 20 like lines cut -->
		</Surface>
		<Surface name="SecondarySurface01">
			<tri3 id="1">2183,2161,2184</tri3>
			<tri3 id="2">2184,2161,2162</tri3>
			<tri3 id="3">2161,2139,2162</tri3>
			<tri3 id="4">2162,2139,2140</tri3>
			<tri3 id="5">2139,2117,2140</tri3>
			<tri3 id="6">2140,2117,2118</tri3>
			<tri3 id="7">2117,2095,2118</tri3>
			<tri3 id="8">2118,2095,2096</tri3>
			<tri3 id="9">2095,2073,2096</tri3>
			<tri3 id="10">2096,2073,2074</tri3>
			<tri3 id="11">2073,2051,2074</tri3>
			<tri3 id="12">2074,2051,2052</tri3>
			<tri3 id="13">2051,2029,2052</tri3>
			<tri3 id="14">2052,2029,2030</tri3>
			<tri3 id="15">2029,2007,2030</tri3>
			<tri3 id="16">2030,2007,2008</tri3>
			<tri3 id="17">2007,1985,2008</tri3>
			<tri3 id="18">2008,1985,1986</tri3>
			<tri3 id="19">1985,1963,1986</tri3>
			<tri3 id="20">1986,1963,1964</tri3>
<!-- ... 20 like lines cut -->
		</Surface>
		<ElementSet name="unnamed_set01">
			<e id="1"/>
		</ElementSet>
		<SurfacePair name="TiedBiphasicInterface01">
			<primary>PrimarySurface01</primary>
			<secondary>SecondarySurface01</secondary>
		</SurfacePair>
	</Mesh>
	<MeshDomains>
		<SolidDomain name="Part5" mat="Biphasic"/>
		<SolidDomain name="Part6" mat="Biphasic permeable"/>
	</MeshDomains>
	<Boundary>
		<bc name="FixedDisplacement01" type="fix" node_set="FixedDisplacement01">
			<dofs>z</dofs>
		</bc>
		<bc name="FixedDisplacement02" type="fix" node_set="FixedDisplacement02">
			<dofs>y</dofs>
		</bc>
		<bc name="FixedDisplacement03" type="fix" node_set="FixedDisplacement03">
			<dofs>x</dofs>
		</bc>
		<bc name="FixedFluidPressure01" type="fix" node_set="FixedFluidPressure01">
			<dofs>p</dofs>
		</bc>
	</Boundary>
	<Loads>
		<surface_load name="NormalTraction0" type="normal_traction" surface="surface01">
			<traction lc="2">1</traction>
			<linear>0</linear>
			<effective>0</effective>
		</surface_load>
	</Loads>
	<Contact>
		<contact type="tied-biphasic" name="TiedBiphasicInterface01" surface_pair="TiedBiphasicInterface01">
			<laugon>0</laugon>
			<tolerance>0.2</tolerance>
			<gaptol>0</gaptol>
			<ptol>0</ptol>
			<penalty>10</penalty>
			<auto_penalty>1</auto_penalty>
			<two_pass>1</two_pass>
			<search_tol>0.01</search_tol>
			<pressure_penalty>10</pressure_penalty>
			<symmetric_stiffness>0</symmetric_stiffness>
			<search_radius>1</search_radius>
			<minaug>0</minaug>
			<maxaug>10</maxaug>
			<update_penalty>0</update_penalty>
		</contact>
	</Contact>
	<LoadData>
		<load_controller id="1" type="loadcurve">
			<interpolate>STEP</interpolate>
			<points>
				<point>0,0</point>
				<point>10,1</point>
				<point>100,10</point>
				<point>1000,100</point>
				<point>10000,1000</point>
				<point>100000,10000</point>
			</points>
		</load_controller>
		<load_controller id="2" type="loadcurve">
			<interpolate>SMOOTH</interpolate>
			<points>
				<point>0,0</point>
				<point>10,-0.3</point>
			</points>
		</load_controller>
	</LoadData>
	<Output>
		<plotfile type="febio">
			<var type="displacement"/>
			<var type="relative volume"/>
			<var type="stress"/>
			<var type="effective fluid pressure"/>
			<var type="fluid pressure"/>
			<var type="fluid flux"/>
		</plotfile>
		<logfile>
			<element_data data="p" elem_set="unnamed_set01"/>
		</logfile>
	</Output>
</febio_spec>
