<?xml version="1.0" encoding="ISO-8859-1"?>
<!--
A biphasic block is attached to an elastic foundation. A
mixture traction is prescribed on the biphasic surface.
-->
<febio_spec version="3.0">
	<Module type="biphasic"/>
	<Control>
		<analysis>TRANSIENT</analysis>
		<time_steps>10</time_steps>
		<step_size>0.1</step_size>
		<solver>
			<max_refs>15</max_refs>
			<max_ups>0</max_ups>
			<diverge_reform>1</diverge_reform>
			<reform_each_time_step>1</reform_each_time_step>
			<dtol>0.001</dtol>
			<etol>0.01</etol>
			<rtol>0</rtol>
			<ptol>0.01</ptol>
			<lstol>0.9</lstol>
			<min_residual>1e-20</min_residual>
			<qnmethod>BROYDEN</qnmethod>
			<mixed_formulation>default</mixed_formulation>
			<symmetric_stiffness>0</symmetric_stiffness>
		</solver>
		<time_stepper>
			<dtmin>0.01</dtmin>
			<dtmax>0.1</dtmax>
			<max_retries>5</max_retries>
			<opt_iter>10</opt_iter>
		</time_stepper>
	</Control>
	<Globals>
		<Constants>
			<T>0</T>
			<R>0</R>
			<Fc>0</Fc>
		</Constants>
	</Globals>
	<Material>
		<material id="1" name="Elastic" type="neo-Hookean">
			<density>1</density>
			<E>5</E>
			<v>0.3</v>
		</material>
		<material id="2" name="Biphasic" type="biphasic">
			<phi0>0.2</phi0>
			<fluid_density>1</fluid_density>
			<solid type="neo-Hookean">
				<density>1</density>
				<E>1</E>
				<v>0</v>
			</solid>
			<permeability type="perm-const-iso">
				<perm>0.001</perm>
			</permeability>
		</material>
	</Material>
	<Mesh>
		<Nodes name="Object01">
			<node id="1">-1.5,-1,0</node>
			<node id="2">-1.5,-1,1</node>
			<node id="3">-1.5,-0.9,0</node>
			<node id="4">-1.5,-0.9,1</node>
			<node id="5">-1.5,-0.8,0</node>
			<node id="6">-1.5,-0.8,1</node>
			<node id="7">-1.5,-0.7,0</node>
			<node id="8">-1.5,-0.7,1</node>
			<node id="9">-1.5,-0.6,0</node>
			<node id="10">-1.5,-0.6,1</node>
			<node id="11">-1.5,-0.5,0</node>
			<node id="12">-1.5,-0.5,1</node>
			<node id="13">-1.5,-0.4,0</node>
			<node id="14">-1.5,-0.4,1</node>
			<node id="15">-1.5,-0.3,0</node>
			<node id="16">-1.5,-0.3,1</node>
			<node id="17">-1.5,-0.2,0</node>
			<node id="18">-1.5,-0.2,1</node>
			<node id="19">-1.5,-0.1,0</node>
			<node id="20">-1.5,-0.1,1</node>
<!-- ... 1282 like lines cut -->
		</Nodes>
		<Elements type="hex8" name="Part1">
			<elem id="1">1,23,25,3,2,24,26,4</elem>
			<elem id="2">3,25,27,5,4,26,28,6</elem>
			<elem id="3">5,27,29,7,6,28,30,8</elem>
			<elem id="4">7,29,31,9,8,30,32,10</elem>
			<elem id="5">9,31,33,11,10,32,34,12</elem>
			<elem id="6">11,33,35,13,12,34,36,14</elem>
			<elem id="7">13,35,37,15,14,36,38,16</elem>
			<elem id="8">15,37,39,17,16,38,40,18</elem>
			<elem id="9">17,39,41,19,18,40,42,20</elem>
			<elem id="10">19,41,43,21,20,42,44,22</elem>
			<elem id="11">23,45,47,25,24,46,48,26</elem>
			<elem id="12">25,47,49,27,26,48,50,28</elem>
			<elem id="13">27,49,51,29,28,50,52,30</elem>
			<elem id="14">29,51,53,31,30,52,54,32</elem>
			<elem id="15">31,53,55,33,32,54,56,34</elem>
			<elem id="16">33,55,57,35,34,56,58,36</elem>
			<elem id="17">35,57,59,37,36,58,60,38</elem>
			<elem id="18">37,59,61,39,38,60,62,40</elem>
			<elem id="19">39,61,63,41,40,62,64,42</elem>
			<elem id="20">41,63,65,43,42,64,66,44</elem>
<!-- ... 280 like lines cut -->
		</Elements>
		<Elements type="hex8" name="Part2">
			<elem id="301">21,43,703,683,22,44,704,684</elem>
			<elem id="302">683,703,705,685,684,704,706,686</elem>
			<elem id="303">685,705,707,687,686,706,708,688</elem>
			<elem id="304">687,707,709,689,688,708,710,690</elem>
			<elem id="305">689,709,711,691,690,710,712,692</elem>
			<elem id="306">691,711,713,693,692,712,714,694</elem>
			<elem id="307">693,713,715,695,694,714,716,696</elem>
			<elem id="308">695,715,717,697,696,716,718,698</elem>
			<elem id="309">697,717,719,699,698,718,720,700</elem>
			<elem id="310">699,719,721,701,700,720,722,702</elem>
			<elem id="311">43,65,723,703,44,66,724,704</elem>
			<elem id="312">703,723,725,705,704,724,726,706</elem>
			<elem id="313">705,725,727,707,706,726,728,708</elem>
			<elem id="314">707,727,729,709,708,728,730,710</elem>
			<elem id="315">709,729,731,711,710,730,732,712</elem>
			<elem id="316">711,731,733,713,712,732,734,714</elem>
			<elem id="317">713,733,735,715,714,734,736,716</elem>
			<elem id="318">715,735,737,717,716,736,738,718</elem>
			<elem id="319">717,737,739,719,718,738,740,720</elem>
			<elem id="320">719,739,741,721,720,740,742,722</elem>
<!-- ... 280 like lines cut -->
		</Elements>
		<NodeSet name="FixedDisplacement01">
			<n id="1"/>
			<n id="2"/>
			<n id="23"/>
			<n id="24"/>
			<n id="45"/>
			<n id="46"/>
			<n id="67"/>
			<n id="68"/>
			<n id="89"/>
			<n id="90"/>
			<n id="111"/>
			<n id="112"/>
			<n id="133"/>
			<n id="134"/>
			<n id="155"/>
			<n id="156"/>
			<n id="177"/>
			<n id="178"/>
			<n id="199"/>
			<n id="200"/>
<!-- ... 42 like lines cut -->
		</NodeSet>
		<NodeSet name="FixedDisplacement02">
			<n id="1"/>
			<n id="2"/>
			<n id="23"/>
			<n id="24"/>
			<n id="45"/>
			<n id="46"/>
			<n id="67"/>
			<n id="68"/>
			<n id="89"/>
			<n id="90"/>
			<n id="111"/>
			<n id="112"/>
			<n id="133"/>
			<n id="134"/>
			<n id="155"/>
			<n id="156"/>
			<n id="177"/>
			<n id="178"/>
			<n id="199"/>
			<n id="200"/>
<!-- ... 42 like lines cut -->
		</NodeSet>
		<NodeSet name="FixedDisplacement03">
			<n id="1"/>
			<n id="2"/>
			<n id="23"/>
			<n id="24"/>
			<n id="45"/>
			<n id="46"/>
			<n id="67"/>
			<n id="68"/>
			<n id="89"/>
			<n id="90"/>
			<n id="111"/>
			<n id="112"/>
			<n id="133"/>
			<n id="134"/>
			<n id="155"/>
			<n id="156"/>
			<n id="177"/>
			<n id="178"/>
			<n id="199"/>
			<n id="200"/>
<!-- ... 42 like lines cut -->
		</NodeSet>
		<NodeSet name="FixedFluidPressure01">
			<n id="21"/>
			<n id="22"/>
			<n id="681"/>
			<n id="682"/>
			<n id="683"/>
			<n id="684"/>
			<n id="685"/>
			<n id="686"/>
			<n id="687"/>
			<n id="688"/>
			<n id="689"/>
			<n id="690"/>
			<n id="691"/>
			<n id="692"/>
			<n id="693"/>
			<n id="694"/>
			<n id="695"/>
			<n id="696"/>
			<n id="697"/>
			<n id="698"/>
<!-- ... 24 like lines cut -->
		</NodeSet>
		<NodeSet name="FixedDisplacement04">
			<n id="1"/>
			<n id="2"/>
			<n id="3"/>
			<n id="4"/>
			<n id="5"/>
			<n id="6"/>
			<n id="7"/>
			<n id="8"/>
			<n id="9"/>
			<n id="10"/>
			<n id="11"/>
			<n id="12"/>
			<n id="13"/>
			<n id="14"/>
			<n id="15"/>
			<n id="16"/>
			<n id="17"/>
			<n id="18"/>
			<n id="19"/>
			<n id="20"/>
<!-- ... 1282 like lines cut -->
		</NodeSet>
		<Surface name="NormalTractionSurface01">
			<quad4 id="1">721,701,702,722</quad4>
			<quad4 id="2">741,721,722,742</quad4>
			<quad4 id="3">761,741,742,762</quad4>
			<quad4 id="4">781,761,762,782</quad4>
			<quad4 id="5">801,781,782,802</quad4>
			<quad4 id="6">821,801,802,822</quad4>
			<quad4 id="7">841,821,822,842</quad4>
			<quad4 id="8">861,841,842,862</quad4>
			<quad4 id="9">881,861,862,882</quad4>
			<quad4 id="10">901,881,882,902</quad4>
			<quad4 id="11">921,901,902,922</quad4>
			<quad4 id="12">941,921,922,942</quad4>
			<quad4 id="13">961,941,942,962</quad4>
			<quad4 id="14">981,961,962,982</quad4>
			<quad4 id="15">1001,981,982,1002</quad4>
			<quad4 id="16">1021,1001,1002,1022</quad4>
			<quad4 id="17">1041,1021,1022,1042</quad4>
			<quad4 id="18">1061,1041,1042,1062</quad4>
			<quad4 id="19">1081,1061,1062,1082</quad4>
			<quad4 id="20">1101,1081,1082,1102</quad4>
<!-- ... 10 like lines cut -->
		</Surface>
		<ElementSet name="unnamed_set01">
			<e id="331"/>
		</ElementSet>
	</Mesh>
	<MeshDomains>
		<SolidDomain name="Part1" mat="Elastic"/>
		<SolidDomain name="Part2" mat="Biphasic"/>
	</MeshDomains>
	<Boundary>
		<bc name="FixedDisplacement01" type="fix" node_set="FixedDisplacement01">
			<dofs>z</dofs>
		</bc>
		<bc name="FixedDisplacement02" type="fix" node_set="FixedDisplacement02">
			<dofs>y</dofs>
		</bc>
		<bc name="FixedDisplacement03" type="fix" node_set="FixedDisplacement03">
			<dofs>x</dofs>
		</bc>
		<bc name="FixedFluidPressure01" type="fix" node_set="FixedFluidPressure01">
			<dofs>p</dofs>
		</bc>
		<bc name="FixedDisplacement04" type="fix" node_set="FixedDisplacement04">
			<dofs>z</dofs>
		</bc>
	</Boundary>
	<Loads>
		<surface_load name="NormalTraction0" type="normal_traction" surface="NormalTractionSurface01">
			<traction lc="1">1</traction>
			<linear>0</linear>
			<effective>0</effective>
		</surface_load>
	</Loads>
	<LoadData>
		<load_controller id="1" type="loadcurve">
			<interpolate>SMOOTH</interpolate>
			<points>
				<point>0,0</point>
				<point>1,-0.5</point>
			</points>
		</load_controller>
	</LoadData>
	<Output>
		<plotfile type="febio">
			<var type="displacement"/>
			<var type="relative volume"/>
			<var type="stress"/>
			<var type="effective fluid pressure"/>
			<var type="fluid pressure"/>
			<var type="fluid flux"/>
		</plotfile>
		<logfile>
			<element_data data="p" elem_set="unnamed_set01"/>
		</logfile>
	</Output>
</febio_spec>
