<?xml version="1.0" encoding="ISO-8859-1"?>
<!--
A biphasic block is attached to an elastic foundation. A
mixture traction is prescribed on the biphasic surface.
-->
<febio_spec version="4.0">
	<Module type="biphasic"/>
	<Control>
		<analysis>TRANSIENT</analysis>
		<time_steps>10</time_steps>
		<step_size>0.1</step_size>
		<plot_zero_state>0</plot_zero_state>
		<plot_range>0,-1</plot_range>
		<plot_level>PLOT_MAJOR_ITRS</plot_level>
		<output_level>OUTPUT_MAJOR_ITRS</output_level>
		<plot_stride>1</plot_stride>
		<adaptor_re_solve>1</adaptor_re_solve>
		<time_stepper type="default">
			<max_retries>5</max_retries>
			<opt_iter>10</opt_iter>
			<dtmin>0.01</dtmin>
			<dtmax>0.1</dtmax>
			<aggressiveness>0</aggressiveness>
			<cutback>0.5</cutback>
			<dtforce>0</dtforce>
		</time_stepper>
		<solver type="biphasic">
			<symmetric_stiffness>non-symmetric</symmetric_stiffness>
			<equation_scheme>staggered</equation_scheme>
			<equation_order>default</equation_order>
			<optimize_bw>0</optimize_bw>
			<lstol>0.9</lstol>
			<lsmin>0.01</lsmin>
			<lsiter>5</lsiter>
			<max_refs>15</max_refs>
			<check_zero_diagonal>0</check_zero_diagonal>
			<zero_diagonal_tol>0</zero_diagonal_tol>
			<force_partition>0</force_partition>
			<reform_each_time_step>1</reform_each_time_step>
			<reform_augment>0</reform_augment>
			<diverge_reform>1</diverge_reform>
			<min_residual>1e-20</min_residual>
			<max_residual>0</max_residual>
			<dtol>0.001</dtol>
			<etol>0.01</etol>
			<rtol>0</rtol>
			<ptol>0.01</ptol>
			<mixed_formulation>0</mixed_formulation>
			<qn_method type="Broyden">
				<max_ups>0</max_ups>
				<max_buffer_size>0</max_buffer_size>
				<cycle_buffer>1</cycle_buffer>
				<cmax>100000</cmax>
			</qn_method>
		</solver>
	</Control>
	<Globals>
		<Constants>
			<T>0</T>
			<R>0</R>
			<Fc>0</Fc>
		</Constants>
	</Globals>
	<Material>
		<material id="1" name="Elastic" type="neo-Hookean">
			<density>1</density>
			<E>5</E>
			<v>0.3</v>
		</material>
		<material id="2" name="Biphasic" type="biphasic">
			<phi0>0.2</phi0>
			<fluid_density>1</fluid_density>
			<tau>0</tau>
			<solid type="neo-Hookean">
				<density>1</density>
				<E>1</E>
				<v>0</v>
			</solid>
			<permeability type="perm-const-iso">
				<perm>0.001</perm>
			</permeability>
		</material>
	</Material>
	<Mesh>
		<Nodes name="Object01">
			<node id="1">-1.5,-1,0</node>
			<node id="2">-1.5,-1,1</node>
			<node id="3">-1.5,-0.9,0</node>
			<node id="4">-1.5,-0.9,1</node>
			<node id="5">-1.5,-0.8,0</node>
			<node id="6">-1.5,-0.8,1</node>
			<node id="7">-1.5,-0.7,0</node>
			<node id="8">-1.5,-0.7,1</node>
			<node id="9">-1.5,-0.6,0</node>
			<node id="10">-1.5,-0.6,1</node>
			<node id="11">-1.5,-0.5,0</node>
			<node id="12">-1.5,-0.5,1</node>
			<node id="13">-1.5,-0.4,0</node>
			<node id="14">-1.5,-0.4,1</node>
			<node id="15">-1.5,-0.3,0</node>
			<node id="16">-1.5,-0.3,1</node>
			<node id="17">-1.5,-0.2,0</node>
			<node id="18">-1.5,-0.2,1</node>
			<node id="19">-1.5,-0.1,0</node>
			<node id="20">-1.5,-0.1,1</node>
<!-- ... 1282 like lines cut -->
		</Nodes>
		<Elements type="hex8" name="Part1">
			<elem id="1">1,23,25,3,2,24,26,4</elem>
			<elem id="2">3,25,27,5,4,26,28,6</elem>
			<elem id="3">5,27,29,7,6,28,30,8</elem>
			<elem id="4">7,29,31,9,8,30,32,10</elem>
			<elem id="5">9,31,33,11,10,32,34,12</elem>
			<elem id="6">11,33,35,13,12,34,36,14</elem>
			<elem id="7">13,35,37,15,14,36,38,16</elem>
			<elem id="8">15,37,39,17,16,38,40,18</elem>
			<elem id="9">17,39,41,19,18,40,42,20</elem>
			<elem id="10">19,41,43,21,20,42,44,22</elem>
			<elem id="11">23,45,47,25,24,46,48,26</elem>
			<elem id="12">25,47,49,27,26,48,50,28</elem>
			<elem id="13">27,49,51,29,28,50,52,30</elem>
			<elem id="14">29,51,53,31,30,52,54,32</elem>
			<elem id="15">31,53,55,33,32,54,56,34</elem>
			<elem id="16">33,55,57,35,34,56,58,36</elem>
			<elem id="17">35,57,59,37,36,58,60,38</elem>
			<elem id="18">37,59,61,39,38,60,62,40</elem>
			<elem id="19">39,61,63,41,40,62,64,42</elem>
			<elem id="20">41,63,65,43,42,64,66,44</elem>
<!-- ... 280 like lines cut -->
		</Elements>
		<Elements type="hex8" name="Part2">
			<elem id="301">21,43,703,683,22,44,704,684</elem>
			<elem id="302">683,703,705,685,684,704,706,686</elem>
			<elem id="303">685,705,707,687,686,706,708,688</elem>
			<elem id="304">687,707,709,689,688,708,710,690</elem>
			<elem id="305">689,709,711,691,690,710,712,692</elem>
			<elem id="306">691,711,713,693,692,712,714,694</elem>
			<elem id="307">693,713,715,695,694,714,716,696</elem>
			<elem id="308">695,715,717,697,696,716,718,698</elem>
			<elem id="309">697,717,719,699,698,718,720,700</elem>
			<elem id="310">699,719,721,701,700,720,722,702</elem>
			<elem id="311">43,65,723,703,44,66,724,704</elem>
			<elem id="312">703,723,725,705,704,724,726,706</elem>
			<elem id="313">705,725,727,707,706,726,728,708</elem>
			<elem id="314">707,727,729,709,708,728,730,710</elem>
			<elem id="315">709,729,731,711,710,730,732,712</elem>
			<elem id="316">711,731,733,713,712,732,734,714</elem>
			<elem id="317">713,733,735,715,714,734,736,716</elem>
			<elem id="318">715,735,737,717,716,736,738,718</elem>
			<elem id="319">717,737,739,719,718,738,740,720</elem>
			<elem id="320">719,739,741,721,720,740,742,722</elem>
<!-- ... 280 like lines cut -->
		</Elements>
		<NodeSet name="FixedDisplacement01">
			1, 2, 23, 24, 45, 46, 67, 68,
			89, 90, 111, 112, 133, 134, 155, 156,
			177, 178, 199, 200, 221, 222, 243, 244,
			265, 266, 287, 288, 309, 310, 331, 332,
			353, 354, 375, 376, 397, 398, 419, 420,
			441, 442, 463, 464, 485, 486, 507, 508,
			529, 530, 551, 552, 573, 574, 595, 596,
			617, 618, 639, 640, 661, 662
		</NodeSet>
		<NodeSet name="FixedDisplacement02">
			1, 2, 23, 24, 45, 46, 67, 68,
			89, 90, 111, 112, 133, 134, 155, 156,
			177, 178, 199, 200, 221, 222, 243, 244,
			265, 266, 287, 288, 309, 310, 331, 332,
			353, 354, 375, 376, 397, 398, 419, 420,
			441, 442, 463, 464, 485, 486, 507, 508,
			529, 530, 551, 552, 573, 574, 595, 596,
			617, 618, 639, 640, 661, 662
		</NodeSet>
		<NodeSet name="FixedDisplacement03">
			1, 2, 23, 24, 45, 46, 67, 68,
			89, 90, 111, 112, 133, 134, 155, 156,
			177, 178, 199, 200, 221, 222, 243, 244,
			265, 266, 287, 288, 309, 310, 331, 332,
			353, 354, 375, 376, 397, 398, 419, 420,
			441, 442, 463, 464, 485, 486, 507, 508,
			529, 530, 551, 552, 573, 574, 595, 596,
			617, 618, 639, 640, 661, 662
		</NodeSet>
		<NodeSet name="FixedFluidPressure01">
			21, 22, 681, 682, 683, 684, 685, 686,
			687, 688, 689, 690, 691, 692, 693, 694,
			695, 696, 697, 698, 699, 700, 701, 702,
			1283, 1284, 1285, 1286, 1287, 1288, 1289, 1290,
			1291, 1292, 1293, 1294, 1295, 1296, 1297, 1298,
			1299, 1300, 1301, 1302
		</NodeSet>
		<NodeSet name="FixedDisplacement04">
			1, 2, 3, 4, 5, 6, 7, 8,
			9, 10, 11, 12, 13, 14, 15, 16,
			17, 18, 19, 20, 21, 22, 23, 24,
			25, 26, 27, 28, 29, 30, 31, 32,
			33, 34, 35, 36, 37, 38, 39, 40,
			41, 42, 43, 44, 45, 46, 47, 48,
			49, 50, 51, 52, 53, 54, 55, 56,
			57, 58, 59, 60, 61, 62, 63, 64,
			65, 66, 67, 68, 69, 70, 71, 72,
			73, 74, 75, 76, 77, 78, 79, 80,
			81, 82, 83, 84, 85, 86, 87, 88,
			89, 90, 91, 92, 93, 94, 95, 96,
			97, 98, 99, 100, 101, 102, 103, 104,
			105, 106, 107, 108, 109, 110, 111, 112,
			113, 114, 115, 116, 117, 118, 119, 120,
			121, 122, 123, 124, 125, 126, 127, 128,
			129, 130, 131, 132, 133, 134, 135, 136,
			137, 138, 139, 140, 141, 142, 143, 144,
			145, 146, 147, 148, 149, 150, 151, 152,
			153, 154, 155, 156, 157, 158, 159, 160,
<!-- ... 143 like lines cut -->
		</NodeSet>
		<Surface name="NormalTractionSurface01">
			<quad4 id="1">721,701,702,722</quad4>
			<quad4 id="2">741,721,722,742</quad4>
			<quad4 id="3">761,741,742,762</quad4>
			<quad4 id="4">781,761,762,782</quad4>
			<quad4 id="5">801,781,782,802</quad4>
			<quad4 id="6">821,801,802,822</quad4>
			<quad4 id="7">841,821,822,842</quad4>
			<quad4 id="8">861,841,842,862</quad4>
			<quad4 id="9">881,861,862,882</quad4>
			<quad4 id="10">901,881,882,902</quad4>
			<quad4 id="11">921,901,902,922</quad4>
			<quad4 id="12">941,921,922,942</quad4>
			<quad4 id="13">961,941,942,962</quad4>
			<quad4 id="14">981,961,962,982</quad4>
			<quad4 id="15">1001,981,982,1002</quad4>
			<quad4 id="16">1021,1001,1002,1022</quad4>
			<quad4 id="17">1041,1021,1022,1042</quad4>
			<quad4 id="18">1061,1041,1042,1062</quad4>
			<quad4 id="19">1081,1061,1062,1082</quad4>
			<quad4 id="20">1101,1081,1082,1102</quad4>
<!-- ... 10 like lines cut -->
		</Surface>
		<ElementSet name="unnamed_set01">
			331
		</ElementSet>
	</Mesh>
	<MeshDomains>
		<SolidDomain name="Part1" mat="Elastic"/>
		<SolidDomain name="Part2" mat="Biphasic"/>
	</MeshDomains>
	<Boundary>
		<bc name="FixedDisplacement01" node_set="FixedDisplacement01" type="zero displacement">
			<x_dof>0</x_dof>
			<y_dof>0</y_dof>
			<z_dof>1</z_dof>
		</bc>
		<bc name="FixedDisplacement02" node_set="FixedDisplacement02" type="zero displacement">
			<x_dof>0</x_dof>
			<y_dof>1</y_dof>
			<z_dof>0</z_dof>
		</bc>
		<bc name="FixedDisplacement03" node_set="FixedDisplacement03" type="zero displacement">
			<x_dof>1</x_dof>
			<y_dof>0</y_dof>
			<z_dof>0</z_dof>
		</bc>
		<bc name="FixedFluidPressure01" node_set="FixedFluidPressure01" type="zero fluid pressure"/>
		<bc name="FixedDisplacement04" node_set="FixedDisplacement04" type="zero displacement">
			<x_dof>0</x_dof>
			<y_dof>0</y_dof>
			<z_dof>1</z_dof>
		</bc>
	</Boundary>
	<Loads>
		<surface_load name="NormalTraction0" surface="NormalTractionSurface01" type="normal_traction">
			<traction lc="1">1</traction>
			<linear>0</linear>
			<shell_bottom>0</shell_bottom>
			<effective>0</effective>
		</surface_load>
	</Loads>
	<LoadData>
		<load_controller id="1" name="LC1" type="loadcurve">
			<interpolate>SMOOTH</interpolate>
			<extend>CONSTANT</extend>
			<points>
				<pt>0,0</pt>
				<pt>1,-0.5</pt>
			</points>
		</load_controller>
	</LoadData>
	<Output>
		<plotfile type="febio">
			<var type="displacement"/>
			<var type="relative volume"/>
			<var type="stress"/>
			<var type="effective fluid pressure"/>
			<var type="fluid pressure"/>
			<var type="fluid flux"/>
		</plotfile>
	</Output>
</febio_spec>
