<?xml version="1.0" encoding="ISO-8859-1"?>
<!--
Problem Description:
	1D confined biphasic creep under the action of a body force
Main Features:
	Biphasic with body force
Materials:
	Biphasic
	neo-Hookean
Degrees of Freedom: 240
Results:
	Steps Completed: 434
	Equilibrium Iterations: 699
	Right Hand Evaluations: 1133
	Siffness Reformations: 699
	Other:
		The creep displacement at t=4000 is -1e-4.
Comments:
	The density of the solid is higher than that of the fluid,
	leading to creep consolidation under the action of the
	external body force.
-->
<febio_spec version="2.0">
	<Module type="biphasic"/>
	<Control>
		<time_steps>40000</time_steps>
		<step_size>0.1</step_size>
		<max_refs>15</max_refs>
		<max_ups>0</max_ups>
		<dtol>0.001</dtol>
		<etol>0.01</etol>
		<rtol>0</rtol>
		<ptol>0.01</ptol>
		<lstol>0.9</lstol>
		<time_stepper>
			<dtmin>0.01</dtmin>
			<dtmax lc="1"></dtmax>
			<max_retries>5</max_retries>
			<opt_iter>10</opt_iter>
		</time_stepper>
		<symmetric_biphasic>0</symmetric_biphasic>
	</Control>
	<Globals>
		<Constants>
			<T>293</T>
			<R>8.314e-06</R>
			<Fc>9.65e-05</Fc>
		</Constants>
	</Globals>
	<Material>
		<material id="1" name="Biphasic" type="biphasic">
			<phi0>0.2</phi0>
			<fluid_density>1</fluid_density>
			<solid type="neo-Hookean">
				<density>2</density>
				<E>1</E>
				<v>0</v>
			</solid>
			<permeability type="perm-const-iso">
				<perm>0.001</perm>
			</permeability>
		</material>
	</Material>
	<Geometry>
		<Nodes>
			<node id="1"> -5.0000000e-01, -5.0000000e-01,  0.0000000e+00</node>
			<node id="2"> -5.0000000e-01, -5.0000000e-01,  4.5584321e-03</node>
			<node id="3"> -5.0000000e-01, -5.0000000e-01,  1.0256472e-02</node>
			<node id="4"> -5.0000000e-01, -5.0000000e-01,  1.7379022e-02</node>
			<node id="5"> -5.0000000e-01, -5.0000000e-01,  2.6282210e-02</node>
			<node id="6"> -5.0000000e-01, -5.0000000e-01,  3.7411195e-02</node>
			<node id="7"> -5.0000000e-01, -5.0000000e-01,  5.1322425e-02</node>
			<node id="8"> -5.0000000e-01, -5.0000000e-01,  6.8711464e-02</node>
			<node id="9"> -5.0000000e-01, -5.0000000e-01,  9.0447762e-02</node>
			<node id="10"> -5.0000000e-01, -5.0000000e-01,  1.1761813e-01</node>
			<node id="11"> -5.0000000e-01, -5.0000000e-01,  1.5158110e-01</node>
			<node id="12"> -5.0000000e-01, -5.0000000e-01,  1.9403481e-01</node>
			<node id="13"> -5.0000000e-01, -5.0000000e-01,  2.4710194e-01</node>
			<node id="14"> -5.0000000e-01, -5.0000000e-01,  3.1343586e-01</node>
			<node id="15"> -5.0000000e-01, -5.0000000e-01,  3.9635325e-01</node>
			<node id="16"> -5.0000000e-01, -5.0000000e-01,  5.0000000e-01</node>
			<node id="17"> -5.0000000e-01, -5.0000000e-01,  6.0364675e-01</node>
			<node id="18"> -5.0000000e-01, -5.0000000e-01,  6.8656414e-01</node>
			<node id="19"> -5.0000000e-01, -5.0000000e-01,  7.5289806e-01</node>
			<node id="20"> -5.0000000e-01, -5.0000000e-01,  8.0596519e-01</node>
<!-- ... 104 like lines cut -->
		</Nodes>
		<Elements type="hex8" mat="1" elset="Part1">
			<elem id="1">     1,    63,    94,    32,     2,    64,    95,    33</elem>
			<elem id="2">     2,    64,    95,    33,     3,    65,    96,    34</elem>
			<elem id="3">     3,    65,    96,    34,     4,    66,    97,    35</elem>
			<elem id="4">     4,    66,    97,    35,     5,    67,    98,    36</elem>
			<elem id="5">     5,    67,    98,    36,     6,    68,    99,    37</elem>
			<elem id="6">     6,    68,    99,    37,     7,    69,   100,    38</elem>
			<elem id="7">     7,    69,   100,    38,     8,    70,   101,    39</elem>
			<elem id="8">     8,    70,   101,    39,     9,    71,   102,    40</elem>
			<elem id="9">     9,    71,   102,    40,    10,    72,   103,    41</elem>
			<elem id="10">    10,    72,   103,    41,    11,    73,   104,    42</elem>
			<elem id="11">    11,    73,   104,    42,    12,    74,   105,    43</elem>
			<elem id="12">    12,    74,   105,    43,    13,    75,   106,    44</elem>
			<elem id="13">    13,    75,   106,    44,    14,    76,   107,    45</elem>
			<elem id="14">    14,    76,   107,    45,    15,    77,   108,    46</elem>
			<elem id="15">    15,    77,   108,    46,    16,    78,   109,    47</elem>
			<elem id="16">    16,    78,   109,    47,    17,    79,   110,    48</elem>
			<elem id="17">    17,    79,   110,    48,    18,    80,   111,    49</elem>
			<elem id="18">    18,    80,   111,    49,    19,    81,   112,    50</elem>
			<elem id="19">    19,    81,   112,    50,    20,    82,   113,    51</elem>
			<elem id="20">    20,    82,   113,    51,    21,    83,   114,    52</elem>
<!-- ... 10 like lines cut -->
		</Elements>
	</Geometry>
	<Boundary>
		<fix bc="x">
			<node id="1"/>
			<node id="2"/>
			<node id="3"/>
			<node id="4"/>
			<node id="5"/>
			<node id="6"/>
			<node id="7"/>
			<node id="8"/>
			<node id="9"/>
			<node id="10"/>
			<node id="11"/>
			<node id="12"/>
			<node id="13"/>
			<node id="14"/>
			<node id="15"/>
			<node id="16"/>
			<node id="17"/>
			<node id="18"/>
			<node id="19"/>
			<node id="20"/>
<!-- ... 104 like lines cut -->
		</fix>
		<fix bc="y">
			<node id="1"/>
			<node id="2"/>
			<node id="3"/>
			<node id="4"/>
			<node id="5"/>
			<node id="6"/>
			<node id="7"/>
			<node id="8"/>
			<node id="9"/>
			<node id="10"/>
			<node id="11"/>
			<node id="12"/>
			<node id="13"/>
			<node id="14"/>
			<node id="15"/>
			<node id="16"/>
			<node id="17"/>
			<node id="18"/>
			<node id="19"/>
			<node id="20"/>
<!-- ... 104 like lines cut -->
		</fix>
		<fix bc="z">
			<node id="1"/>
			<node id="32"/>
			<node id="63"/>
			<node id="94"/>
		</fix>
		<fix bc="p">
			<node id="31"/>
			<node id="62"/>
			<node id="93"/>
			<node id="124"/>
		</fix>
	</Boundary>
	<Loads>
		<body_load type="const">
			<z lc="2">0.001</z>
		</body_load>
	</Loads>
	<LoadData>
		<loadcurve id="1" type="step">
			<point>0,0</point>
			<point>1,0.1</point>
			<point>10,1</point>
			<point>100,10</point>
		</loadcurve>
		<loadcurve id="2" type="step">
			<point>0,0</point>
			<point>1,1</point>
		</loadcurve>
	</LoadData>
	<Output>
		<plotfile type="febio">
			<var type="displacement"/>
			<var type="effective fluid pressure"/>
			<var type="fluid flux"/>
			<var type="fluid pressure"/>
			<var type="relative volume"/>
			<var type="stress"/>
			<var type="velocity"/>
		</plotfile>
		<logfile>
			<element_data data="p">1</element_data>
		</logfile>
	</Output>
</febio_spec>
