<?xml version="1.0" encoding="ISO-8859-1"?>
<!--
Problem Description:
	Step loading of cylindrical disk in unconfined compression.
	The solute concentration is initially uniform in the disk and equal to the prescribed bath concentration.
	A step compressive strain cause solute concentration to increase in the disk, before desorbing back down.
	Units: length = mm, force = N, time = s, mole = nanomol; stress = MPa, concentration = mM.
Main Features:
	Biphasic with Solute
Secondary Features:
	
Materials:
	biphasic-solute
Degrees of Freedom: 2465
Results:
	Steps Completed: 105
	Equilibrium Iterations: 187
	Right Hand Evaluations: 292
	Siffness Reformations: 187
	Other:
		The material has a minimum solute concentration of 6e-03 at time t=3113.
Comments:
	
-->
<febio_spec version="2.0">
	<Module type="solute"/>
	<Control>
		<title>Step Loading Solute Uptake</title>
		<time_steps>720000</time_steps>
		<step_size>0.01</step_size>
		<max_refs>25</max_refs>
		<max_ups>0</max_ups>
		<dtol>0.001</dtol>
		<etol>0.01</etol>
		<rtol>0</rtol>
		<ptol>0.01</ptol>
		<ctol>0.001</ctol>
		<lstol>0.9</lstol>
		<time_stepper>
			<dtmin>0.01</dtmin>
			<dtmax lc="1"></dtmax>
			<max_retries>5</max_retries>
			<opt_iter>100</opt_iter>
		</time_stepper>
		<symmetric_biphasic>0</symmetric_biphasic>
	</Control>
	<Globals>
		<Constants>
			<T>298</T>
			<R>8.314e-006</R>
			<Fc>0</Fc>
		</Constants>
		<Solutes>
			<solute id="1" name="neutral">
				<charge_number>0</charge_number>
				<molar_mass>1</molar_mass>
				<density>1</density>
			</solute>
		</Solutes>
	</Globals>
	<Material>
		<material id="1" name="Biphasic with solute" type="biphasic-solute">
			<phi0>0.04</phi0>
			<solid type="neo-Hookean">
				<density>1</density>
				<E>0.006</E>
				<v>0</v>
			</solid>
			<permeability type="perm-Holmes-Mow">
				<perm>0.08</perm>
				<M>0</M>
				<alpha>0</alpha>
			</permeability>
			<osmotic_coefficient type="osm-coef-const">
				<osmcoef>1</osmcoef>
			</osmotic_coefficient>
			<solute sol="1">
				<diffusivity name="Diffusivity" type="diff-const-iso">
					<free_diff>0.00039</free_diff>
					<diff>0.000275</diff>
				</diffusivity>
				<solubility name="Solubility" type="solub-const">
					<solub>1</solub>
				</solubility>
			</solute>
		</material>
	</Material>
	<Geometry>
		<Nodes>
			<node id="1"> 0.0000000e+000, 0.0000000e+000, 0.0000000e+000</node>
			<node id="2"> 5.2414736e-002, 0.0000000e+000, 0.0000000e+000</node>
			<node id="3"> 4.8424902e-002, 2.0058251e-002, 0.0000000e+000</node>
			<node id="4"> 3.7062816e-002, 3.7062815e-002, 0.0000000e+000</node>
			<node id="5"> 2.0058252e-002, 4.8424902e-002, 0.0000000e+000</node>
			<node id="6"> 1.4044474e-009, 5.2414736e-002, 0.0000000e+000</node>
			<node id="7"> 1.0220874e-001, 0.0000000e+000, 0.0000000e+000</node>
			<node id="8"> 9.4428559e-002, 3.9113589e-002, 0.0000000e+000</node>
			<node id="9"> 7.2272491e-002, 7.2272489e-002, 0.0000000e+000</node>
			<node id="10"> 3.9113592e-002, 9.4428558e-002, 0.0000000e+000</node>
			<node id="11"> 2.7386725e-009, 1.0220874e-001, 0.0000000e+000</node>
			<node id="12"> 1.4951304e-001, 0.0000000e+000, 0.0000000e+000</node>
			<node id="13"> 1.3813203e-001, 5.7216161e-002, 0.0000000e+000</node>
			<node id="14"> 1.0572168e-001, 1.0572168e-001, 0.0000000e+000</node>
			<node id="15"> 5.7216164e-002, 1.3813203e-001, 0.0000000e+000</node>
			<node id="16"> 4.0061863e-009, 1.4951304e-001, 0.0000000e+000</node>
			<node id="17"> 1.9445212e-001, 0.0000000e+000, 0.0000000e+000</node>
			<node id="18"> 1.7965033e-001, 7.4413604e-002, 0.0000000e+000</node>
			<node id="19"> 1.3749841e-001, 1.3749841e-001, 0.0000000e+000</node>
			<node id="20"> 7.4413608e-002, 1.7965033e-001, 0.0000000e+000</node>
<!-- ... 582 like lines cut -->
		</Nodes>
		<Elements type="penta6" mat="1" elset="Part2">
			<elem id="1">     1,     2,     3,   302,   303,   304</elem>
			<elem id="2">     1,     3,     4,   302,   304,   305</elem>
			<elem id="3">     1,     4,     5,   302,   305,   306</elem>
			<elem id="4">     1,     5,     6,   302,   306,   307</elem>
		</Elements>
		<Elements type="hex8" mat="1" elset="Part2">
			<elem id="5">     2,     7,     8,     3,   303,   308,   309,   304</elem>
			<elem id="6">     3,     8,     9,     4,   304,   309,   310,   305</elem>
			<elem id="7">     4,     9,    10,     5,   305,   310,   311,   306</elem>
			<elem id="8">     5,    10,    11,     6,   306,   311,   312,   307</elem>
			<elem id="9">     7,    12,    13,     8,   308,   313,   314,   309</elem>
			<elem id="10">     8,    13,    14,     9,   309,   314,   315,   310</elem>
			<elem id="11">     9,    14,    15,    10,   310,   315,   316,   311</elem>
			<elem id="12">    10,    15,    16,    11,   311,   316,   317,   312</elem>
			<elem id="13">    12,    17,    18,    13,   313,   318,   319,   314</elem>
			<elem id="14">    13,    18,    19,    14,   314,   319,   320,   315</elem>
			<elem id="15">    14,    19,    20,    15,   315,   320,   321,   316</elem>
			<elem id="16">    15,    20,    21,    16,   316,   321,   322,   317</elem>
			<elem id="17">    17,    22,    23,    18,   318,   323,   324,   319</elem>
			<elem id="18">    18,    23,    24,    19,   319,   324,   325,   320</elem>
			<elem id="19">    19,    24,    25,    20,   320,   325,   326,   321</elem>
			<elem id="20">    20,    25,    26,    21,   321,   326,   327,   322</elem>
			<elem id="21">    22,    27,    28,    23,   323,   328,   329,   324</elem>
			<elem id="22">    23,    28,    29,    24,   324,   329,   330,   325</elem>
			<elem id="23">    24,    29,    30,    25,   325,   330,   331,   326</elem>
			<elem id="24">    25,    30,    31,    26,   326,   331,   332,   327</elem>
<!-- ... 216 like lines cut -->
		</Elements>
	</Geometry>
	<Boundary>
		<fix bc="x">
			<node id="1"/>
			<node id="6"/>
			<node id="11"/>
			<node id="16"/>
			<node id="21"/>
			<node id="26"/>
			<node id="31"/>
			<node id="36"/>
			<node id="41"/>
			<node id="46"/>
			<node id="51"/>
			<node id="56"/>
			<node id="61"/>
			<node id="66"/>
			<node id="71"/>
			<node id="76"/>
			<node id="81"/>
			<node id="86"/>
			<node id="91"/>
			<node id="96"/>
<!-- ... 102 like lines cut -->
		</fix>
		<fix bc="y">
			<node id="1"/>
			<node id="2"/>
			<node id="7"/>
			<node id="12"/>
			<node id="17"/>
			<node id="22"/>
			<node id="27"/>
			<node id="32"/>
			<node id="37"/>
			<node id="42"/>
			<node id="47"/>
			<node id="52"/>
			<node id="57"/>
			<node id="62"/>
			<node id="67"/>
			<node id="72"/>
			<node id="77"/>
			<node id="82"/>
			<node id="87"/>
			<node id="92"/>
<!-- ... 102 like lines cut -->
		</fix>
		<fix bc="z">
			<node id="1"/>
			<node id="2"/>
			<node id="3"/>
			<node id="4"/>
			<node id="5"/>
			<node id="6"/>
			<node id="7"/>
			<node id="8"/>
			<node id="9"/>
			<node id="10"/>
			<node id="11"/>
			<node id="12"/>
			<node id="13"/>
			<node id="14"/>
			<node id="15"/>
			<node id="16"/>
			<node id="17"/>
			<node id="18"/>
			<node id="19"/>
			<node id="20"/>
<!-- ... 281 like lines cut -->
		</fix>
		<prescribe bc="z" lc="2">
			<node id="302">1</node>
			<node id="303">1</node>
			<node id="304">1</node>
			<node id="305">1</node>
			<node id="306">1</node>
			<node id="307">1</node>
			<node id="308">1</node>
			<node id="309">1</node>
			<node id="310">1</node>
			<node id="311">1</node>
			<node id="312">1</node>
			<node id="313">1</node>
			<node id="314">1</node>
			<node id="315">1</node>
			<node id="316">1</node>
			<node id="317">1</node>
			<node id="318">1</node>
			<node id="319">1</node>
			<node id="320">1</node>
			<node id="321">1</node>
<!-- ... 281 like lines cut -->
		</prescribe>
		<prescribe bc="p" lc="3">
			<node id="297">-0.0024776</node>
			<node id="298">-0.0024776</node>
			<node id="299">-0.0024776</node>
			<node id="300">-0.0024776</node>
			<node id="301">-0.0024776</node>
			<node id="598">-0.0024776</node>
			<node id="599">-0.0024776</node>
			<node id="600">-0.0024776</node>
			<node id="601">-0.0024776</node>
			<node id="602">-0.0024776</node>
		</prescribe>
		<prescribe bc="c1" lc="4">
			<node id="297">1</node>
			<node id="298">1</node>
			<node id="299">1</node>
			<node id="300">1</node>
			<node id="301">1</node>
			<node id="598">1</node>
			<node id="599">1</node>
			<node id="600">1</node>
			<node id="601">1</node>
			<node id="602">1</node>
		</prescribe>
	</Boundary>
	<Initial>
		<concentration sol="1">
			<node id="1">0.006</node>
			<node id="2">0.006</node>
			<node id="3">0.006</node>
			<node id="4">0.006</node>
			<node id="5">0.006</node>
			<node id="6">0.006</node>
			<node id="7">0.006</node>
			<node id="8">0.006</node>
			<node id="9">0.006</node>
			<node id="10">0.006</node>
			<node id="11">0.006</node>
			<node id="12">0.006</node>
			<node id="13">0.006</node>
			<node id="14">0.006</node>
			<node id="15">0.006</node>
			<node id="16">0.006</node>
			<node id="17">0.006</node>
			<node id="18">0.006</node>
			<node id="19">0.006</node>
			<node id="20">0.006</node>
<!-- ... 582 like lines cut -->
		</concentration>
	</Initial>
	<LoadData>
		<loadcurve id="1" type="linear" extend="extrapolate">
			<loadpoint>0,0</loadpoint>
			<loadpoint>1,0.2</loadpoint>
		</loadcurve>
		<loadcurve id="2" type="step">
			<loadpoint>0,0</loadpoint>
			<loadpoint>0.01,-0.01</loadpoint>
		</loadcurve>
		<loadcurve id="3" type="step">
			<loadpoint>0,0</loadpoint>
			<loadpoint>0.01,0.006</loadpoint>
		</loadcurve>
		<loadcurve id="4" type="step">
			<loadpoint>0,0</loadpoint>
			<loadpoint>0.01,0.006</loadpoint>
		</loadcurve>
	</LoadData>
	<Output>
		<plotfile type="febio">
			<var type="displacement"/>
			<var type="effective fluid pressure"/>
			<var type="effective solute concentration"/>
			<var type="fluid flux"/>
			<var type="fluid pressure"/>
			<var type="relative volume"/>
			<var type="solute concentration"/>
			<var type="solute flux"/>
			<var type="stress"/>
		</plotfile>
		<logfile>
			<element_data data="c">1</element_data>
		</logfile>
	</Output>
</febio_spec>
