<?xml version="1.0" encoding="ISO-8859-1"?>
<!--
Problem Description:
	1D biphasic-solute contact between two bricks under displacement control (stress-relaxation).
Main Features:
	Biphasic with Solute
	Contact
Secondary Features:
	Must point controller
Materials:
	Neo-Hookean
	biphasic-solute
Degrees of Freedom: 80
Results:
	Steps Completed: 71
	Equilibrium Iterations: 185
	Right Hand Evaluations: 257
	Siffness Reformations: 185
	Other:
		The solute concentration at the interface is 4.036 at time t = 3000.
Comments:
	
-->
<febio_spec version="2.0">
	<Module type="solute"/>
	<Control>
		<time_steps>30000</time_steps>
		<step_size>0.1</step_size>
		<max_refs>15</max_refs>
		<max_ups>0</max_ups>
		<dtol>0.001</dtol>
		<etol>0.01</etol>
		<rtol>0</rtol>
		<ptol>0.01</ptol>
		<ctol>0.01</ctol>
		<lstol>0.9</lstol>
		<time_stepper>
			<dtmin>0.01</dtmin>
			<dtmax lc="1"></dtmax>
			<max_retries>5</max_retries>
			<opt_iter>10</opt_iter>
		</time_stepper>
		<symmetric_biphasic>0</symmetric_biphasic>
	</Control>
	<Globals>
		<Constants>
			<T>298</T>
			<R>8.314e-006</R>
			<Fc>0</Fc>
		</Constants>
		<Solutes>
			<solute id="1" name="neutral">
				<charge_number>0</charge_number>
				<molar_mass>1</molar_mass>
				<density>1</density>
			</solute>
		</Solutes>
	</Globals>
	<Material>
		<material id="1" name="Bottom Brick" type="biphasic-solute">
			<phi0>0.2</phi0>
			<solid type="neo-Hookean">
				<density>1</density>
				<E>1</E>
				<v>0</v>
			</solid>
			<permeability type="perm-Holmes-Mow">
				<perm>0.001</perm>
				<M>0</M>
				<alpha>0</alpha>
			</permeability>
			<osmotic_coefficient type="osm-coef-const">
				<osmcoef>1</osmcoef>
			</osmotic_coefficient>
			<solute sol="1">
				<diffusivity type="diff-const-iso">
					<free_diff>0.001</free_diff>
					<diff>0.0005</diff>
				</diffusivity>
				<solubility type="solub-const">
					<solub>1</solub>
				</solubility>
			</solute>
		</material>
		<material id="2" name="Top Brick" type="biphasic-solute">
			<phi0>0.2</phi0>
			<solid type="neo-Hookean">
				<density>1</density>
				<E>1</E>
				<v>0</v>
			</solid>
			<permeability type="perm-Holmes-Mow">
				<perm>0.001</perm>
				<M>0</M>
				<alpha>0</alpha>
			</permeability>
			<osmotic_coefficient type="osm-coef-const">
				<osmcoef>1</osmcoef>
			</osmotic_coefficient>
			<solute sol="1">
				<diffusivity type="diff-const-iso">
					<free_diff>0.001</free_diff>
					<diff>0.0005</diff>
				</diffusivity>
				<solubility type="solub-const">
					<solub>1</solub>
				</solubility>
			</solute>
		</material>
	</Material>
	<Geometry>
		<Nodes>
			<node id="1">-5.0000000e-001,-1.0000000e+000, 0.0000000e+000</node>
			<node id="2">-5.0000000e-001,-1.0000000e+000, 1.0000000e+000</node>
			<node id="3">-5.0000000e-001,-9.9283808e-001, 0.0000000e+000</node>
			<node id="4">-5.0000000e-001,-9.9283808e-001, 1.0000000e+000</node>
			<node id="5">-5.0000000e-001,-9.8281139e-001, 0.0000000e+000</node>
			<node id="6">-5.0000000e-001,-9.8281139e-001, 1.0000000e+000</node>
			<node id="7">-5.0000000e-001,-9.6877402e-001, 0.0000000e+000</node>
			<node id="8">-5.0000000e-001,-9.6877402e-001, 1.0000000e+000</node>
			<node id="9">-5.0000000e-001,-9.4912171e-001, 0.0000000e+000</node>
			<node id="10">-5.0000000e-001,-9.4912171e-001, 1.0000000e+000</node>
			<node id="11">-5.0000000e-001,-9.2160847e-001, 0.0000000e+000</node>
			<node id="12">-5.0000000e-001,-9.2160847e-001, 1.0000000e+000</node>
			<node id="13">-5.0000000e-001,-8.8308993e-001, 0.0000000e+000</node>
			<node id="14">-5.0000000e-001,-8.8308993e-001, 1.0000000e+000</node>
			<node id="15">-5.0000000e-001,-8.2916399e-001, 0.0000000e+000</node>
			<node id="16">-5.0000000e-001,-8.2916399e-001, 1.0000000e+000</node>
			<node id="17">-5.0000000e-001,-7.5366766e-001, 0.0000000e+000</node>
			<node id="18">-5.0000000e-001,-7.5366766e-001, 1.0000000e+000</node>
			<node id="19">-5.0000000e-001,-6.4797280e-001, 0.0000000e+000</node>
			<node id="20">-5.0000000e-001,-6.4797280e-001, 1.0000000e+000</node>
<!-- ... 148 like lines cut -->
		</Nodes>
		<Elements type="hex8" mat="1" elset="Part1">
			<elem id="1">     1,    43,    45,     3,     2,    44,    46,     4</elem>
			<elem id="2">     3,    45,    47,     5,     4,    46,    48,     6</elem>
			<elem id="3">     5,    47,    49,     7,     6,    48,    50,     8</elem>
			<elem id="4">     7,    49,    51,     9,     8,    50,    52,    10</elem>
			<elem id="5">     9,    51,    53,    11,    10,    52,    54,    12</elem>
			<elem id="6">    11,    53,    55,    13,    12,    54,    56,    14</elem>
			<elem id="7">    13,    55,    57,    15,    14,    56,    58,    16</elem>
			<elem id="8">    15,    57,    59,    17,    16,    58,    60,    18</elem>
			<elem id="9">    17,    59,    61,    19,    18,    60,    62,    20</elem>
			<elem id="10">    19,    61,    63,    21,    20,    62,    64,    22</elem>
			<elem id="11">    21,    63,    65,    23,    22,    64,    66,    24</elem>
			<elem id="12">    23,    65,    67,    25,    24,    66,    68,    26</elem>
			<elem id="13">    25,    67,    69,    27,    26,    68,    70,    28</elem>
			<elem id="14">    27,    69,    71,    29,    28,    70,    72,    30</elem>
			<elem id="15">    29,    71,    73,    31,    30,    72,    74,    32</elem>
			<elem id="16">    31,    73,    75,    33,    32,    74,    76,    34</elem>
			<elem id="17">    33,    75,    77,    35,    34,    76,    78,    36</elem>
			<elem id="18">    35,    77,    79,    37,    36,    78,    80,    38</elem>
			<elem id="19">    37,    79,    81,    39,    38,    80,    82,    40</elem>
			<elem id="20">    39,    81,    83,    41,    40,    82,    84,    42</elem>
		</Elements>
		<Elements type="hex8" mat="2" elset="Part2">
			<elem id="21">    85,   127,   129,    87,    86,   128,   130,    88</elem>
			<elem id="22">    87,   129,   131,    89,    88,   130,   132,    90</elem>
			<elem id="23">    89,   131,   133,    91,    90,   132,   134,    92</elem>
			<elem id="24">    91,   133,   135,    93,    92,   134,   136,    94</elem>
			<elem id="25">    93,   135,   137,    95,    94,   136,   138,    96</elem>
			<elem id="26">    95,   137,   139,    97,    96,   138,   140,    98</elem>
			<elem id="27">    97,   139,   141,    99,    98,   140,   142,   100</elem>
			<elem id="28">    99,   141,   143,   101,   100,   142,   144,   102</elem>
			<elem id="29">   101,   143,   145,   103,   102,   144,   146,   104</elem>
			<elem id="30">   103,   145,   147,   105,   104,   146,   148,   106</elem>
			<elem id="31">   105,   147,   149,   107,   106,   148,   150,   108</elem>
			<elem id="32">   107,   149,   151,   109,   108,   150,   152,   110</elem>
			<elem id="33">   109,   151,   153,   111,   110,   152,   154,   112</elem>
			<elem id="34">   111,   153,   155,   113,   112,   154,   156,   114</elem>
			<elem id="35">   113,   155,   157,   115,   114,   156,   158,   116</elem>
			<elem id="36">   115,   157,   159,   117,   116,   158,   160,   118</elem>
			<elem id="37">   117,   159,   161,   119,   118,   160,   162,   120</elem>
			<elem id="38">   119,   161,   163,   121,   120,   162,   164,   122</elem>
			<elem id="39">   121,   163,   165,   123,   122,   164,   166,   124</elem>
			<elem id="40">   123,   165,   167,   125,   124,   166,   168,   126</elem>
		</Elements>
		<Surface name="MasterSurface01">
			<quad4 id="1">    83,    41,    42,    84</quad4>
		</Surface>
		<Surface name="SlaveSurface01">
			<quad4 id="1">    85,   127,   128,    86</quad4>
		</Surface>
	</Geometry>
	<Boundary>
		<fix bc="x">
			<node id="1"/>
			<node id="2"/>
			<node id="3"/>
			<node id="4"/>
			<node id="5"/>
			<node id="6"/>
			<node id="7"/>
			<node id="8"/>
			<node id="9"/>
			<node id="10"/>
			<node id="11"/>
			<node id="12"/>
			<node id="13"/>
			<node id="14"/>
			<node id="15"/>
			<node id="16"/>
			<node id="17"/>
			<node id="18"/>
			<node id="19"/>
			<node id="20"/>
<!-- ... 148 like lines cut -->
		</fix>
		<fix bc="z">
			<node id="1"/>
			<node id="2"/>
			<node id="3"/>
			<node id="4"/>
			<node id="5"/>
			<node id="6"/>
			<node id="7"/>
			<node id="8"/>
			<node id="9"/>
			<node id="10"/>
			<node id="11"/>
			<node id="12"/>
			<node id="13"/>
			<node id="14"/>
			<node id="15"/>
			<node id="16"/>
			<node id="17"/>
			<node id="18"/>
			<node id="19"/>
			<node id="20"/>
<!-- ... 148 like lines cut -->
		</fix>
		<fix bc="y">
			<node id="1"/>
			<node id="2"/>
			<node id="43"/>
			<node id="44"/>
		</fix>
		<prescribe bc="y" lc="2">
			<node id="125">1</node>
			<node id="126">1</node>
			<node id="167">1</node>
			<node id="168">1</node>
		</prescribe>
		<prescribe bc="p" lc="3">
			<node id="1">1</node>
			<node id="2">1</node>
			<node id="43">1</node>
			<node id="44">1</node>
		</prescribe>
		<prescribe bc="c1" lc="4">
			<node id="1">1</node>
			<node id="2">1</node>
			<node id="43">1</node>
			<node id="44">1</node>
		</prescribe>
	</Boundary>
	<Contact>
		<contact type="sliding3">
			<laugon>0</laugon>
			<tolerance>0.2</tolerance>
			<penalty>1</penalty>
			<two_pass>1</two_pass>
			<auto_penalty>1</auto_penalty>
			<pressure_penalty>1</pressure_penalty>
			<symmetric_stiffness>0</symmetric_stiffness>
			<concentration_penalty>1</concentration_penalty>
			<ambient_pressure>0</ambient_pressure>
			<ambient_concentration>0</ambient_concentration>
			<search_radius>1</search_radius>
			<surface type="master" set="MasterSurface01"/>
			<surface type="slave" set="SlaveSurface01"/>
		</contact>
	</Contact>
	<LoadData>
		<loadcurve id="1" type="step">
			<loadpoint>0,0</loadpoint>
			<loadpoint>1000,25</loadpoint>
			<loadpoint>10000,100</loadpoint>
		</loadcurve>
		<loadcurve id="2" type="linear">
			<loadpoint>0,0</loadpoint>
			<loadpoint>500,-0.5</loadpoint>
		</loadcurve>
		<loadcurve id="3" type="step">
			<loadpoint>0,0</loadpoint>
			<loadpoint>1,-0.01238786</loadpoint>
		</loadcurve>
		<loadcurve id="4" type="step">
			<loadpoint>0,0</loadpoint>
			<loadpoint>1,5</loadpoint>
		</loadcurve>
	</LoadData>
	<Output>
		<plotfile type="febio">
			<var type="contact gap"/>
			<var type="contact pressure"/>
			<var type="displacement"/>
			<var type="effective fluid pressure"/>
			<var type="effective solute concentration"/>
			<var type="fluid flux"/>
			<var type="fluid pressure"/>
			<var type="relative volume"/>
			<var type="solute concentration"/>
			<var type="solute flux"/>
			<var type="stress"/>
		</plotfile>
		<logfile>
			<element_data data="c">1</element_data>
		</logfile>
	</Output>
</febio_spec>
