<?xml version="1.0" encoding="ISO-8859-1"?>
<!--
1D solute transport under the action of a prescribed flux.

At steady state, the upstream solute concentration is 1
-->
<febio_spec version="4.0">
	<Module type="solute"/>
	<Control>
		<analysis>TRANSIENT</analysis>
		<time_steps>100000</time_steps>
		<step_size>0.1</step_size>
		<plot_zero_state>0</plot_zero_state>
		<plot_range>0,-1</plot_range>
		<plot_level>PLOT_MAJOR_ITRS</plot_level>
		<output_level>OUTPUT_MAJOR_ITRS</output_level>
		<plot_stride>1</plot_stride>
		<adaptor_re_solve>1</adaptor_re_solve>
		<time_stepper type="default">
			<max_retries>5</max_retries>
			<opt_iter>10</opt_iter>
			<dtmin>0.01</dtmin>
			<dtmax lc="1">0</dtmax>
			<aggressiveness>0</aggressiveness>
			<cutback>0.5</cutback>
			<dtforce>0</dtforce>
		</time_stepper>
		<solver type="solute">
			<symmetric_stiffness>non-symmetric</symmetric_stiffness>
			<equation_scheme>staggered</equation_scheme>
			<equation_order>default</equation_order>
			<optimize_bw>0</optimize_bw>
			<lstol>0.9</lstol>
			<lsmin>0.01</lsmin>
			<lsiter>5</lsiter>
			<max_refs>15</max_refs>
			<check_zero_diagonal>0</check_zero_diagonal>
			<zero_diagonal_tol>0</zero_diagonal_tol>
			<force_partition>0</force_partition>
			<reform_each_time_step>1</reform_each_time_step>
			<reform_augment>0</reform_augment>
			<diverge_reform>1</diverge_reform>
			<min_residual>1e-20</min_residual>
			<max_residual>0</max_residual>
			<dtol>0.001</dtol>
			<etol>0.01</etol>
			<rtol>0</rtol>
			<rhoi>-2</rhoi>
			<alpha>1</alpha>
			<beta>0.25</beta>
			<gamma>0.5</gamma>
			<logSolve>0</logSolve>
			<arc_length>0</arc_length>
			<arc_length_scale>0</arc_length_scale>
			<ptol>0.01</ptol>
			<mixed_formulation>0</mixed_formulation>
			<ctol>0.01</ctol>
			<qn_method type="Broyden">
				<max_ups>0</max_ups>
				<max_buffer_size>0</max_buffer_size>
				<cycle_buffer>1</cycle_buffer>
				<cmax>100000</cmax>
			</qn_method>
		</solver>
	</Control>
	<Globals>
		<Constants>
			<T>293</T>
			<R>8.314e-06</R>
			<Fc>9.65e-05</Fc>
		</Constants>
		<Solutes>
			<solute id="1" name="solute1">
				<charge_number>0</charge_number>
				<molar_mass>1</molar_mass>
				<density>1</density>
			</solute>
		</Solutes>
	</Globals>
	<Material>
		<material id="1" name="Material1" type="biphasic-solute">
			<phi0>0.2</phi0>
			<fluid_density>0</fluid_density>
			<solid type="neo-Hookean">
				<density>1</density>
				<E>1</E>
				<v>0</v>
			</solid>
			<permeability type="perm-const-iso">
				<perm>0.001</perm>
			</permeability>
			<osmotic_coefficient type="osm-coef-const">
				<osmcoef>1</osmcoef>
			</osmotic_coefficient>
			<solute sol="solute1">
				<diffusivity type="diff-const-iso">
					<free_diff>0.001</free_diff>
					<diff>0.0005</diff>
				</diffusivity>
				<solubility type="solub-const">
					<solub>1</solub>
				</solubility>
			</solute>
		</material>
	</Material>
	<Mesh>
		<Nodes name="Object01">
			<node id="1">-0.5,-0.5,0</node>
			<node id="2">-0.5,-0.5,0.0044118914</node>
			<node id="3">-0.5,-0.5,0.011029729</node>
			<node id="4">-0.5,-0.5,0.020956484</node>
			<node id="5">-0.5,-0.5,0.035846618</node>
			<node id="6">-0.5,-0.5,0.058181818</node>
			<node id="7">-0.5,-0.5,0.091684619</node>
			<node id="8">-0.5,-0.5,0.14193882</node>
			<node id="9">-0.5,-0.5,0.21732012</node>
			<node id="10">-0.5,-0.5,0.33039207</node>
			<node id="11">-0.5,-0.5,0.5</node>
			<node id="12">-0.5,-0.5,0.66960793</node>
			<node id="13">-0.5,-0.5,0.78267988</node>
			<node id="14">-0.5,-0.5,0.85806118</node>
			<node id="15">-0.5,-0.5,0.90831538</node>
			<node id="16">-0.5,-0.5,0.94181818</node>
			<node id="17">-0.5,-0.5,0.96415338</node>
			<node id="18">-0.5,-0.5,0.97904352</node>
			<node id="19">-0.5,-0.5,0.98897027</node>
			<node id="20">-0.5,-0.5,0.99558811</node>
<!-- ... 64 like lines cut -->
		</Nodes>
		<Elements type="hex8" name="Part1">
			<elem id="1">1,43,64,22,2,44,65,23</elem>
			<elem id="2">2,44,65,23,3,45,66,24</elem>
			<elem id="3">3,45,66,24,4,46,67,25</elem>
			<elem id="4">4,46,67,25,5,47,68,26</elem>
			<elem id="5">5,47,68,26,6,48,69,27</elem>
			<elem id="6">6,48,69,27,7,49,70,28</elem>
			<elem id="7">7,49,70,28,8,50,71,29</elem>
			<elem id="8">8,50,71,29,9,51,72,30</elem>
			<elem id="9">9,51,72,30,10,52,73,31</elem>
			<elem id="10">10,52,73,31,11,53,74,32</elem>
			<elem id="11">11,53,74,32,12,54,75,33</elem>
			<elem id="12">12,54,75,33,13,55,76,34</elem>
			<elem id="13">13,55,76,34,14,56,77,35</elem>
			<elem id="14">14,56,77,35,15,57,78,36</elem>
			<elem id="15">15,57,78,36,16,58,79,37</elem>
			<elem id="16">16,58,79,37,17,59,80,38</elem>
			<elem id="17">17,59,80,38,18,60,81,39</elem>
			<elem id="18">18,60,81,39,19,61,82,40</elem>
			<elem id="19">19,61,82,40,20,62,83,41</elem>
			<elem id="20">20,62,83,41,21,63,84,42</elem>
		</Elements>
		<NodeSet name="FixedDisplacement01">
			1, 2, 3, 4, 5, 6, 7, 8,
			9, 10, 11, 12, 13, 14, 15, 16,
			17, 18, 19, 20, 21, 22, 23, 24,
			25, 26, 27, 28, 29, 30, 31, 32,
			33, 34, 35, 36, 37, 38, 39, 40,
			41, 42, 43, 44, 45, 46, 47, 48,
			49, 50, 51, 52, 53, 54, 55, 56,
			57, 58, 59, 60, 61, 62, 63, 64,
			65, 66, 67, 68, 69, 70, 71, 72,
			73, 74, 75, 76, 77, 78, 79, 80,
			81, 82, 83, 84, 1, 2, 3, 4,
			5, 6, 7, 8, 9, 10, 11, 12,
			13, 14, 15, 16, 17, 18, 19, 20,
			21, 22, 23, 24, 25, 26, 27, 28,
			29, 30, 31, 32, 33, 34, 35, 36,
			37, 38, 39, 40, 41, 42, 43, 44,
			45, 46, 47, 48, 49, 50, 51, 52,
			53, 54, 55, 56, 57, 58, 59, 60,
			61, 62, 63, 64, 65, 66, 67, 68,
			69, 70, 71, 72, 73, 74, 75, 76,
			77, 78, 79, 80, 81, 82, 83, 84
		</NodeSet>
		<NodeSet name="FixedDisplacement02">
			1, 2, 3, 4, 5, 6, 7, 8,
			9, 10, 11, 12, 13, 14, 15, 16,
			17, 18, 19, 20, 21, 22, 23, 24,
			25, 26, 27, 28, 29, 30, 31, 32,
			33, 34, 35, 36, 37, 38, 39, 40,
			41, 42, 43, 44, 45, 46, 47, 48,
			49, 50, 51, 52, 53, 54, 55, 56,
			57, 58, 59, 60, 61, 62, 63, 64,
			65, 66, 67, 68, 69, 70, 71, 72,
			73, 74, 75, 76, 77, 78, 79, 80,
			81, 82, 83, 84, 1, 2, 3, 4,
			5, 6, 7, 8, 9, 10, 11, 12,
			13, 14, 15, 16, 17, 18, 19, 20,
			21, 22, 23, 24, 25, 26, 27, 28,
			29, 30, 31, 32, 33, 34, 35, 36,
			37, 38, 39, 40, 41, 42, 43, 44,
			45, 46, 47, 48, 49, 50, 51, 52,
			53, 54, 55, 56, 57, 58, 59, 60,
			61, 62, 63, 64, 65, 66, 67, 68,
			69, 70, 71, 72, 73, 74, 75, 76,
			77, 78, 79, 80, 81, 82, 83, 84
		</NodeSet>
		<NodeSet name="FixedDisplacement03">
			21, 42, 63, 84
		</NodeSet>
		<NodeSet name="FixedConcentration01">
			21, 42, 63, 84
		</NodeSet>
		<NodeSet name="InitialConcentration01">
			1, 2, 3, 4, 5, 6, 7, 8,
			9, 10, 11, 12, 13, 14, 15, 16,
			17, 18, 19, 20, 21, 22, 23, 24,
			25, 26, 27, 28, 29, 30, 31, 32,
			33, 34, 35, 36, 37, 38, 39, 40,
			41, 42, 43, 44, 45, 46, 47, 48,
			49, 50, 51, 52, 53, 54, 55, 56,
			57, 58, 59, 60, 61, 62, 63, 64,
			65, 66, 67, 68, 69, 70, 71, 72,
			73, 74, 75, 76, 77, 78, 79, 80,
			81, 82, 83, 84
		</NodeSet>
		<NodeSet name="InitialFluidPressure01">
			1, 2, 3, 4, 5, 6, 7, 8,
			9, 10, 11, 12, 13, 14, 15, 16,
			17, 18, 19, 20, 21, 22, 23, 24,
			25, 26, 27, 28, 29, 30, 31, 32,
			33, 34, 35, 36, 37, 38, 39, 40,
			41, 42, 43, 44, 45, 46, 47, 48,
			49, 50, 51, 52, 53, 54, 55, 56,
			57, 58, 59, 60, 61, 62, 63, 64,
			65, 66, 67, 68, 69, 70, 71, 72,
			73, 74, 75, 76, 77, 78, 79, 80,
			81, 82, 83, 84
		</NodeSet>
		<Surface name="SoluteFlux1">
			<quad4 id="1">22,64,43,1</quad4>
		</Surface>
		<ElementSet name="unnamed_set01">
			1
		</ElementSet>
	</Mesh>
	<MeshDomains>
		<SolidDomain name="Part1" mat="Material1"/>
	</MeshDomains>
	<Boundary>
		<bc name="FixedDisplacement01" node_set="FixedDisplacement01" type="zero displacement">
			<x_dof>1</x_dof>
			<y_dof>0</y_dof>
			<z_dof>0</z_dof>
		</bc>
		<bc name="FixedDisplacement02" node_set="FixedDisplacement02" type="zero displacement">
			<x_dof>0</x_dof>
			<y_dof>1</y_dof>
			<z_dof>0</z_dof>
		</bc>
		<bc name="FixedDisplacement03" node_set="FixedDisplacement03" type="zero displacement">
			<x_dof>0</x_dof>
			<y_dof>0</y_dof>
			<z_dof>1</z_dof>
		</bc>
		<bc name="FixedConcentration01" node_set="FixedConcentration01" type="zero concentration">
			<c_dof>c1</c_dof>
		</bc>
	</Boundary>
	<Loads>
		<surface_load name="SoluteFlux0" surface="SoluteFlux1" type="soluteflux">
			<flux lc="2">1</flux>
			<linear>0</linear>
			<shell_bottom>0</shell_bottom>
			<solute_id>solute1</solute_id>
		</surface_load>
	</Loads>
	<Initial>
		<ic name="InitConcentration01" node_set="InitialConcentration01" type="initial concentration">
			<dof>c1</dof>
			<value>0</value>
		</ic>
		<ic name="InitialFluidPressure01" node_set="InitialFluidPressure01" type="initial fluid pressure">
			<value>0</value>
		</ic>
	</Initial>
	<LoadData>
		<load_controller id="1" name="LC1" type="loadcurve">
			<interpolate>STEP</interpolate>
			<extend>CONSTANT</extend>
			<points>
				<pt>0,0</pt>
				<pt>1,0.1</pt>
				<pt>2,0.1</pt>
				<pt>11,1</pt>
				<pt>101,10</pt>
				<pt>1001,100</pt>
				<pt>10001,1000</pt>
			</points>
		</load_controller>
		<load_controller id="2" name="LC2" type="loadcurve">
			<interpolate>LINEAR</interpolate>
			<extend>CONSTANT</extend>
			<points>
				<pt>0,0</pt>
				<pt>1,-0.0004</pt>
			</points>
		</load_controller>
	</LoadData>
	<Output>
		<plotfile type="febio">
			<var type="displacement"/>
			<var type="relative volume"/>
			<var type="stress"/>
			<var type="effective fluid pressure"/>
			<var type="fluid pressure"/>
			<var type="fluid flux"/>
			<var type="effective solute concentration"/>
			<var type="solute concentration"/>
			<var type="solute flux"/>
		</plotfile>
	</Output>
</febio_spec>
