<?xml version="1.0" encoding="ISO-8859-1"?>
<!--
1D solute transport under the action of a prescribed flux.

At steady state, the upstream solute concentration is 1
-->
<febio_spec version="3.0">
	<Module type="solute"/>
	<Control>
		<analysis>TRANSIENT</analysis>
		<time_steps>100000</time_steps>
		<step_size>0.1</step_size>
		<solver>
			<max_refs>15</max_refs>
			<max_ups>0</max_ups>
			<diverge_reform>1</diverge_reform>
			<reform_each_time_step>1</reform_each_time_step>
			<dtol>0.001</dtol>
			<etol>0.01</etol>
			<rtol>0</rtol>
			<ptol>0.01</ptol>
			<ctol>0.01</ctol>
			<lstol>0.9</lstol>
			<min_residual>1e-20</min_residual>
			<qnmethod>BROYDEN</qnmethod>
			<symmetric_stiffness>0</symmetric_stiffness>
		</solver>
		<time_stepper>
			<dtmin>0.01</dtmin>
			<dtmax lc="1"></dtmax>
			<max_retries>5</max_retries>
			<opt_iter>10</opt_iter>
		</time_stepper>
	</Control>
	<Globals>
		<Constants>
			<T>293</T>
			<R>8.314e-06</R>
			<Fc>9.65e-05</Fc>
		</Constants>
		<Solutes>
			<solute id="1" name="solute1">
				<charge_number>0</charge_number>
				<molar_mass>1</molar_mass>
				<density>1</density>
			</solute>
		</Solutes>
	</Globals>
	<Material>
		<material id="1" name="Material1" type="biphasic-solute">
			<phi0>0.2</phi0>
			<solid type="neo-Hookean">
				<density>1</density>
				<E>1</E>
				<v>0</v>
			</solid>
			<permeability type="perm-const-iso">
				<perm>0.001</perm>
			</permeability>
			<osmotic_coefficient type="osm-coef-const">
				<osmcoef>1</osmcoef>
			</osmotic_coefficient>
			<solute sol="1">
				<diffusivity type="diff-const-iso">
					<free_diff>0.001</free_diff>
					<diff>0.0005</diff>
				</diffusivity>
				<solubility type="solub-const">
					<solub>1</solub>
				</solubility>
			</solute>
		</material>
	</Material>
	<Mesh>
		<Nodes name="Object01">
			<node id="1">-0.5,-0.5,0</node>
			<node id="2">-0.5,-0.5,0.0044118914</node>
			<node id="3">-0.5,-0.5,0.011029729</node>
			<node id="4">-0.5,-0.5,0.020956484</node>
			<node id="5">-0.5,-0.5,0.035846618</node>
			<node id="6">-0.5,-0.5,0.058181818</node>
			<node id="7">-0.5,-0.5,0.091684619</node>
			<node id="8">-0.5,-0.5,0.14193882</node>
			<node id="9">-0.5,-0.5,0.21732012</node>
			<node id="10">-0.5,-0.5,0.33039207</node>
			<node id="11">-0.5,-0.5,0.5</node>
			<node id="12">-0.5,-0.5,0.66960793</node>
			<node id="13">-0.5,-0.5,0.78267988</node>
			<node id="14">-0.5,-0.5,0.85806118</node>
			<node id="15">-0.5,-0.5,0.90831538</node>
			<node id="16">-0.5,-0.5,0.94181818</node>
			<node id="17">-0.5,-0.5,0.96415338</node>
			<node id="18">-0.5,-0.5,0.97904352</node>
			<node id="19">-0.5,-0.5,0.98897027</node>
			<node id="20">-0.5,-0.5,0.99558811</node>
<!-- ... 64 like lines cut -->
		</Nodes>
		<Elements type="hex8" name="Part1">
			<elem id="1">1,43,64,22,2,44,65,23</elem>
			<elem id="2">2,44,65,23,3,45,66,24</elem>
			<elem id="3">3,45,66,24,4,46,67,25</elem>
			<elem id="4">4,46,67,25,5,47,68,26</elem>
			<elem id="5">5,47,68,26,6,48,69,27</elem>
			<elem id="6">6,48,69,27,7,49,70,28</elem>
			<elem id="7">7,49,70,28,8,50,71,29</elem>
			<elem id="8">8,50,71,29,9,51,72,30</elem>
			<elem id="9">9,51,72,30,10,52,73,31</elem>
			<elem id="10">10,52,73,31,11,53,74,32</elem>
			<elem id="11">11,53,74,32,12,54,75,33</elem>
			<elem id="12">12,54,75,33,13,55,76,34</elem>
			<elem id="13">13,55,76,34,14,56,77,35</elem>
			<elem id="14">14,56,77,35,15,57,78,36</elem>
			<elem id="15">15,57,78,36,16,58,79,37</elem>
			<elem id="16">16,58,79,37,17,59,80,38</elem>
			<elem id="17">17,59,80,38,18,60,81,39</elem>
			<elem id="18">18,60,81,39,19,61,82,40</elem>
			<elem id="19">19,61,82,40,20,62,83,41</elem>
			<elem id="20">20,62,83,41,21,63,84,42</elem>
		</Elements>
		<NodeSet name="FixedDisplacement01">
			<n id="1"/>
			<n id="2"/>
			<n id="3"/>
			<n id="4"/>
			<n id="5"/>
			<n id="6"/>
			<n id="7"/>
			<n id="8"/>
			<n id="9"/>
			<n id="10"/>
			<n id="11"/>
			<n id="12"/>
			<n id="13"/>
			<n id="14"/>
			<n id="15"/>
			<n id="16"/>
			<n id="17"/>
			<n id="18"/>
			<n id="19"/>
			<n id="20"/>
<!-- ... 148 like lines cut -->
		</NodeSet>
		<NodeSet name="FixedDisplacement02">
			<n id="1"/>
			<n id="2"/>
			<n id="3"/>
			<n id="4"/>
			<n id="5"/>
			<n id="6"/>
			<n id="7"/>
			<n id="8"/>
			<n id="9"/>
			<n id="10"/>
			<n id="11"/>
			<n id="12"/>
			<n id="13"/>
			<n id="14"/>
			<n id="15"/>
			<n id="16"/>
			<n id="17"/>
			<n id="18"/>
			<n id="19"/>
			<n id="20"/>
<!-- ... 148 like lines cut -->
		</NodeSet>
		<NodeSet name="FixedDisplacement03">
			<n id="21"/>
			<n id="42"/>
			<n id="63"/>
			<n id="84"/>
		</NodeSet>
		<NodeSet name="FixedConcentration01">
			<n id="21"/>
			<n id="42"/>
			<n id="63"/>
			<n id="84"/>
		</NodeSet>
		<NodeSet name="InitialConcentration01">
			<n id="1"/>
			<n id="2"/>
			<n id="3"/>
			<n id="4"/>
			<n id="5"/>
			<n id="6"/>
			<n id="7"/>
			<n id="8"/>
			<n id="9"/>
			<n id="10"/>
			<n id="11"/>
			<n id="12"/>
			<n id="13"/>
			<n id="14"/>
			<n id="15"/>
			<n id="16"/>
			<n id="17"/>
			<n id="18"/>
			<n id="19"/>
			<n id="20"/>
<!-- ... 64 like lines cut -->
		</NodeSet>
		<NodeSet name="InitialFluidPressure01">
			<n id="1"/>
			<n id="2"/>
			<n id="3"/>
			<n id="4"/>
			<n id="5"/>
			<n id="6"/>
			<n id="7"/>
			<n id="8"/>
			<n id="9"/>
			<n id="10"/>
			<n id="11"/>
			<n id="12"/>
			<n id="13"/>
			<n id="14"/>
			<n id="15"/>
			<n id="16"/>
			<n id="17"/>
			<n id="18"/>
			<n id="19"/>
			<n id="20"/>
<!-- ... 64 like lines cut -->
		</NodeSet>
		<Surface name="SoluteFlux1">
			<quad4 id="1">22,64,43,1</quad4>
		</Surface>
		<ElementSet name="unnamed_set01">
			<e id="1"/>
		</ElementSet>
	</Mesh>
	<MeshDomains>
		<SolidDomain name="Part1" mat="Material1"/>
	</MeshDomains>
	<Boundary>
		<bc name="FixedDisplacement01" type="fix" node_set="FixedDisplacement01">
			<dofs>x</dofs>
		</bc>
		<bc name="FixedDisplacement02" type="fix" node_set="FixedDisplacement02">
			<dofs>y</dofs>
		</bc>
		<bc name="FixedDisplacement03" type="fix" node_set="FixedDisplacement03">
			<dofs>z</dofs>
		</bc>
		<bc name="FixedConcentration01" type="fix" node_set="FixedConcentration01">
			<dofs>c1</dofs>
		</bc>
	</Boundary>
	<Loads>
		<surface_load name="SoluteFlux0" type="soluteflux" surface="SoluteFlux1">
			<flux lc="2">1</flux>
			<linear>0</linear>
			<solute_id>1</solute_id>
		</surface_load>
	</Loads>
	<Initial>
		<ic type="init_dof" node_set="InitialConcentration01">
			<dof>c1</dof>
			<value>0</value>
		</ic>
		<ic type="init_dof" node_set="InitialFluidPressure01">
			<dof>p</dof>
			<value>0</value>
		</ic>
	</Initial>
	<LoadData>
		<load_controller id="1" type="loadcurve">
			<interpolate>STEP</interpolate>
			<points>
				<point>0,0</point>
				<point>1,0.1</point>
				<point>2,0.1</point>
				<point>11,1</point>
				<point>101,10</point>
				<point>1001,100</point>
				<point>10001,1000</point>
			</points>
		</load_controller>
		<load_controller id="2" type="loadcurve">
			<interpolate>LINEAR</interpolate>
			<points>
				<point>0,0</point>
				<point>1,-0.0004</point>
			</points>
		</load_controller>
	</LoadData>
	<Output>
		<plotfile type="febio">
			<var type="displacement"/>
			<var type="relative volume"/>
			<var type="stress"/>
			<var type="effective fluid pressure"/>
			<var type="fluid pressure"/>
			<var type="fluid flux"/>
			<var type="effective solute concentration"/>
			<var type="solute concentration"/>
			<var type="solute flux"/>
		</plotfile>
		<logfile>
			<element_data data="c1" elem_set="unnamed_set01"/>
		</logfile>
	</Output>
</febio_spec>
