<?xml version="1.0" encoding="ISO-8859-1"?>
<!--
Problem Description:
	A rectangular strip consisting of hex20 elements is modeled with two
	continuous fiber distribution, each with a 2D elliptical distribution
	density. The two fiber bundles lie in the x-y plane and are oriented at +45 deg. and -45
	deg. relative to the x-direction. The left and right ends of the strip are interfaced
	with rigid bodies. The left end is fixed and a displacement is prescribed on the
	right end, along x.
Main Features:
	Continuous fiber distribution
Secondary Features:
	Trapezoidal integration scheme
Materials:
	solid mixture
	neo-Hookean
	continuous fiber distribution
	fiber-exponential-power-law
	von-Mises-2d
	fibers-2d-trapezoidal
Degrees of Freedom: 1450
Results:
	Steps Completed: 15
	Equilibrium Iterations: 46
	Right Hand Evaluations: 61
	Siffness Reformations: 46
	Other:
		The x-reaction force at time 1 is -94.20
Comments:
	The fiber-exponential-power-law properties are selected to
	produce a highly nonlinear response for the reaction
	force. Compare to cf06.feb which uses 3D ellipsoidal
	distribution densities.
-->
<febio_spec version="1.2">
	<Module type="solid"/>
	<Control>
		<time_steps>100</time_steps>
		<step_size>0.01</step_size>
		<max_refs>25</max_refs>
		<max_ups>0</max_ups>
		<dtol>0.001</dtol>
		<etol>0.01</etol>
		<rtol>0</rtol>
		<lstol>0.9</lstol>
		<time_stepper>
			<dtmin>1e-05</dtmin>
			<dtmax>0.1</dtmax>
			<max_retries>10</max_retries>
			<opt_iter>10</opt_iter>
			<aggressiveness>1</aggressiveness>
		</time_stepper>
		<analysis type="static"/>
	</Control>
	<Globals>
		<Constants>
			<T>0</T>
			<R>0</R>
			<Fc>0</Fc>
		</Constants>
	</Globals>
	<Material>
		<material id="1" name="Material" type="solid mixture">
			<solid type="neo-Hookean">
				<density>1</density>
				<E>1</E>
				<v>0.3</v>
			</solid>
			<solid type="continuous fiber distribution">
				<mat_axis type="vector">
					<a>1,1,0</a>
					<d>-1,1,0</d>
				</mat_axis>
				<fibers type="fiber-exponential-power-law">
					<alpha>20</alpha>
					<beta>2</beta>
					<ksi>5</ksi>
					<mu>0</mu>
				</fibers>
				<distribution type="elliptical">
					<spa1>5</spa1>
					<spa2>1</spa2>
				</distribution>
				<scheme type="fibers-2d-trapezoidal">
					<nth>31</nth>
				</scheme>
			</solid>
			<solid type="continuous fiber distribution">
				<mat_axis type="vector">
					<a>1,-1,0</a>
					<d>1,1,0</d>
				</mat_axis>
				<fibers type="fiber-exponential-power-law">
					<alpha>20</alpha>
					<beta>2</beta>
					<ksi>5</ksi>
					<mu>0</mu>
				</fibers>
				<distribution type="elliptical">
					<spa1>5</spa1>
					<spa2>1</spa2>
				</distribution>
				<scheme type="fibers-2d-trapezoidal">
					<nth>31</nth>
				</scheme>
			</solid>
		</material>
		<material id="2" name="LeftPlaten" type="rigid body">
			<density>1</density>
			<center_of_mass>0,0,0</center_of_mass>
		</material>
		<material id="3" name="RightPlaten" type="rigid body">
			<density>1</density>
			<center_of_mass>0,0,0</center_of_mass>
		</material>
	</Material>
	<Geometry>
		<Nodes>
			<node id="1"> -5.0000000e+00, -1.5000000e+00,  0.0000000e+00</node>
			<node id="2"> -5.0000000e+00, -1.5000000e+00,  1.2500000e-01</node>
			<node id="3"> -5.0000000e+00, -1.5000000e+00,  2.5000000e-01</node>
			<node id="4"> -5.0000000e+00, -1.5000000e+00,  3.7500000e-01</node>
			<node id="5"> -5.0000000e+00, -1.5000000e+00,  5.0000000e-01</node>
			<node id="6"> -5.0000000e+00, -1.1250000e+00,  0.0000000e+00</node>
			<node id="7"> -5.0000000e+00, -1.1250000e+00,  2.5000000e-01</node>
			<node id="8"> -5.0000000e+00, -1.1250000e+00,  5.0000000e-01</node>
			<node id="9"> -5.0000000e+00, -7.5000000e-01,  0.0000000e+00</node>
			<node id="10"> -5.0000000e+00, -7.5000000e-01,  1.2500000e-01</node>
			<node id="11"> -5.0000000e+00, -7.5000000e-01,  2.5000000e-01</node>
			<node id="12"> -5.0000000e+00, -7.5000000e-01,  3.7500000e-01</node>
			<node id="13"> -5.0000000e+00, -7.5000000e-01,  5.0000000e-01</node>
			<node id="14"> -5.0000000e+00, -3.7500000e-01,  0.0000000e+00</node>
			<node id="15"> -5.0000000e+00, -3.7500000e-01,  2.5000000e-01</node>
			<node id="16"> -5.0000000e+00, -3.7500000e-01,  5.0000000e-01</node>
			<node id="17"> -5.0000000e+00,  0.0000000e+00,  0.0000000e+00</node>
			<node id="18"> -5.0000000e+00,  0.0000000e+00,  1.2500000e-01</node>
			<node id="19"> -5.0000000e+00,  0.0000000e+00,  2.5000000e-01</node>
			<node id="20"> -5.0000000e+00,  0.0000000e+00,  3.7500000e-01</node>
<!-- ... 537 like lines cut -->
		</Nodes>
		<Elements>
			<hex20 id="1" mat="1">     1,    53,    61,     9,     3,    55,    63,    11,    38,    58,    41,     6,    39,    59,    42,     7,     2,    54,    62,    10</hex20>
			<hex20 id="2" mat="1">     3,    55,    63,    11,     5,    57,    65,    13,    39,    59,    42,     7,    40,    60,    43,     8,     4,    56,    64,    12</hex20>
			<hex20 id="3" mat="1">     9,    61,    69,    17,    11,    63,    71,    19,    41,    66,    44,    14,    42,    67,    45,    15,    10,    62,    70,    18</hex20>
			<hex20 id="4" mat="1">    11,    63,    71,    19,    13,    65,    73,    21,    42,    67,    45,    15,    43,    68,    46,    16,    12,    64,    72,    20</hex20>
			<hex20 id="5" mat="1">    17,    69,    77,    25,    19,    71,    79,    27,    44,    74,    47,    22,    45,    75,    48,    23,    18,    70,    78,    26</hex20>
			<hex20 id="6" mat="1">    19,    71,    79,    27,    21,    73,    81,    29,    45,    75,    48,    23,    46,    76,    49,    24,    20,    72,    80,    28</hex20>
			<hex20 id="7" mat="1">    25,    77,    85,    33,    27,    79,    87,    35,    47,    82,    50,    30,    48,    83,    51,    31,    26,    78,    86,    34</hex20>
			<hex20 id="8" mat="1">    27,    79,    87,    35,    29,    81,    89,    37,    48,    83,    51,    31,    49,    84,    52,    32,    28,    80,    88,    36</hex20>
			<hex20 id="9" mat="1">    53,   105,   113,    61,    55,   107,   115,    63,    90,   110,    93,    58,    91,   111,    94,    59,    54,   106,   114,    62</hex20>
			<hex20 id="10" mat="1">    55,   107,   115,    63,    57,   109,   117,    65,    91,   111,    94,    59,    92,   112,    95,    60,    56,   108,   116,    64</hex20>
			<hex20 id="11" mat="1">    61,   113,   121,    69,    63,   115,   123,    71,    93,   118,    96,    66,    94,   119,    97,    67,    62,   114,   122,    70</hex20>
			<hex20 id="12" mat="1">    63,   115,   123,    71,    65,   117,   125,    73,    94,   119,    97,    67,    95,   120,    98,    68,    64,   116,   124,    72</hex20>
			<hex20 id="13" mat="1">    69,   121,   129,    77,    71,   123,   131,    79,    96,   126,    99,    74,    97,   127,   100,    75,    70,   122,   130,    78</hex20>
			<hex20 id="14" mat="1">    71,   123,   131,    79,    73,   125,   133,    81,    97,   127,   100,    75,    98,   128,   101,    76,    72,   124,   132,    80</hex20>
			<hex20 id="15" mat="1">    77,   129,   137,    85,    79,   131,   139,    87,    99,   134,   102,    82,   100,   135,   103,    83,    78,   130,   138,    86</hex20>
			<hex20 id="16" mat="1">    79,   131,   139,    87,    81,   133,   141,    89,   100,   135,   103,    83,   101,   136,   104,    84,    80,   132,   140,    88</hex20>
			<hex20 id="17" mat="1">   105,   157,   165,   113,   107,   159,   167,   115,   142,   162,   145,   110,   143,   163,   146,   111,   106,   158,   166,   114</hex20>
			<hex20 id="18" mat="1">   107,   159,   167,   115,   109,   161,   169,   117,   143,   163,   146,   111,   144,   164,   147,   112,   108,   160,   168,   116</hex20>
			<hex20 id="19" mat="1">   113,   165,   173,   121,   115,   167,   175,   123,   145,   170,   148,   118,   146,   171,   149,   119,   114,   166,   174,   122</hex20>
			<hex20 id="20" mat="1">   115,   167,   175,   123,   117,   169,   177,   125,   146,   171,   149,   119,   147,   172,   150,   120,   116,   168,   176,   124</hex20>
<!-- ... 60 like lines cut -->
		</Elements>
	</Geometry>
	<Boundary>
		<contact type="rigid">
			<node id="1" rb="2"></node>
			<node id="2" rb="2"></node>
			<node id="3" rb="2"></node>
			<node id="4" rb="2"></node>
			<node id="5" rb="2"></node>
			<node id="6" rb="2"></node>
			<node id="7" rb="2"></node>
			<node id="8" rb="2"></node>
			<node id="9" rb="2"></node>
			<node id="10" rb="2"></node>
			<node id="11" rb="2"></node>
			<node id="12" rb="2"></node>
			<node id="13" rb="2"></node>
			<node id="14" rb="2"></node>
			<node id="15" rb="2"></node>
			<node id="16" rb="2"></node>
			<node id="17" rb="2"></node>
			<node id="18" rb="2"></node>
			<node id="19" rb="2"></node>
			<node id="20" rb="2"></node>
<!-- ... 17 like lines cut -->
		</contact>
		<contact type="rigid">
			<node id="521" rb="3"></node>
			<node id="522" rb="3"></node>
			<node id="523" rb="3"></node>
			<node id="524" rb="3"></node>
			<node id="525" rb="3"></node>
			<node id="526" rb="3"></node>
			<node id="527" rb="3"></node>
			<node id="528" rb="3"></node>
			<node id="529" rb="3"></node>
			<node id="530" rb="3"></node>
			<node id="531" rb="3"></node>
			<node id="532" rb="3"></node>
			<node id="533" rb="3"></node>
			<node id="534" rb="3"></node>
			<node id="535" rb="3"></node>
			<node id="536" rb="3"></node>
			<node id="537" rb="3"></node>
			<node id="538" rb="3"></node>
			<node id="539" rb="3"></node>
			<node id="540" rb="3"></node>
<!-- ... 17 like lines cut -->
		</contact>
	</Boundary>
	<Constraints>
		<rigid_body mat="2">
			<trans_x type="fixed"></trans_x>
			<trans_y type="fixed"></trans_y>
			<trans_z type="fixed"></trans_z>
			<rot_x type="fixed"></rot_x>
			<rot_y type="fixed"></rot_y>
			<rot_z type="fixed"></rot_z>
		</rigid_body>
		<rigid_body mat="3">
			<trans_y type="fixed"></trans_y>
			<trans_z type="fixed"></trans_z>
			<rot_x type="fixed"></rot_x>
			<rot_y type="fixed"></rot_y>
			<rot_z type="fixed"></rot_z>
		</rigid_body>
		<rigid_body mat="3">
			<trans_x type="prescribed" lc="1">1</trans_x>
		</rigid_body>
	</Constraints>
	<LoadData>
		<loadcurve id="1" type="smooth">
			<loadpoint>0,0</loadpoint>
			<loadpoint>1,2</loadpoint>
		</loadcurve>
	</LoadData>
	<Output>
		<plotfile type="febio">
			<var type="displacement"/>
			<var type="reaction forces"/>
			<var type="relative volume"/>
			<var type="strain energy density"/>
			<var type="stress"/>
		</plotfile>
	</Output>
</febio_spec>
