<?xml version="1.0" encoding="ISO-8859-1"?>
<febio_spec version="4.0">
	<Module type="reaction-diffusion"/>
	<Control>
		<time_steps>100</time_steps>
		<step_size>0.5</step_size>
		<solver type="reaction-diffusion">
			<alpha>0.5</alpha>
		</solver>
	</Control>
	<Globals>
		<Solutes>
			<solute id="1" name="A"/>
			<solute id="2" name="B"/>
		</Solutes>
	</Globals>
	<Material>
		<material id="1" name="Material1" type="reaction-diffusion">
			<species name="A">
				<diffusivity>1</diffusivity>
			</species>
			<species name="B">
				<diffusivity>0.01</diffusivity>
			</species>
			<reaction type="mass action">
				<equation>A --> B</equation>
				<rate_constant>0.5</rate_constant>
			</reaction>
		</material>
	</Material>
	<Mesh>
		<Nodes name="Object01">
			<node id="1">-0.5,-0.5,0</node>
			<node id="2">-0.5,-0.5,0.25</node>
			<node id="3">-0.5,-0.5,0.5</node>
			<node id="4">-0.5,-0.5,0.75</node>
			<node id="5">-0.5,-0.5,1</node>
			<node id="6">-0.5,-0.25,0</node>
			<node id="7">-0.5,-0.25,0.25</node>
			<node id="8">-0.5,-0.25,0.5</node>
			<node id="9">-0.5,-0.25,0.75</node>
			<node id="10">-0.5,-0.25,1</node>
			<node id="11">-0.5,0,0</node>
			<node id="12">-0.5,0,0.25</node>
			<node id="13">-0.5,0,0.5</node>
			<node id="14">-0.5,0,0.75</node>
			<node id="15">-0.5,0,1</node>
			<node id="16">-0.5,0.25,0</node>
			<node id="17">-0.5,0.25,0.25</node>
			<node id="18">-0.5,0.25,0.5</node>
			<node id="19">-0.5,0.25,0.75</node>
			<node id="20">-0.5,0.25,1</node>
<!-- ... 105 like lines cut -->
		</Nodes>
		<Elements type="hex8" name="Part1">
			<elem id="1">1,26,31,6,2,27,32,7</elem>
			<elem id="2">2,27,32,7,3,28,33,8</elem>
			<elem id="3">3,28,33,8,4,29,34,9</elem>
			<elem id="4">4,29,34,9,5,30,35,10</elem>
			<elem id="5">6,31,36,11,7,32,37,12</elem>
			<elem id="6">7,32,37,12,8,33,38,13</elem>
			<elem id="7">8,33,38,13,9,34,39,14</elem>
			<elem id="8">9,34,39,14,10,35,40,15</elem>
			<elem id="9">11,36,41,16,12,37,42,17</elem>
			<elem id="10">12,37,42,17,13,38,43,18</elem>
			<elem id="11">13,38,43,18,14,39,44,19</elem>
			<elem id="12">14,39,44,19,15,40,45,20</elem>
			<elem id="13">16,41,46,21,17,42,47,22</elem>
			<elem id="14">17,42,47,22,18,43,48,23</elem>
			<elem id="15">18,43,48,23,19,44,49,24</elem>
			<elem id="16">19,44,49,24,20,45,50,25</elem>
			<elem id="17">26,51,56,31,27,52,57,32</elem>
			<elem id="18">27,52,57,32,28,53,58,33</elem>
			<elem id="19">28,53,58,33,29,54,59,34</elem>
			<elem id="20">29,54,59,34,30,55,60,35</elem>
<!-- ... 44 like lines cut -->
		</Elements>
		<NodeSet name="FixedBC1">1,2,3,4,5,6,7,8,9,10,11,12,13,14,15,16,17,18,19,20,21,22,23,24,25</NodeSet>
		<Surface name="SurfaceLoad1">
			<quad4 id="1">101,106,107,102</quad4>
			<quad4 id="2">102,107,108,103</quad4>
			<quad4 id="3">103,108,109,104</quad4>
			<quad4 id="4">104,109,110,105</quad4>
			<quad4 id="5">106,111,112,107</quad4>
			<quad4 id="6">107,112,113,108</quad4>
			<quad4 id="7">108,113,114,109</quad4>
			<quad4 id="8">109,114,115,110</quad4>
			<quad4 id="9">111,116,117,112</quad4>
			<quad4 id="10">112,117,118,113</quad4>
			<quad4 id="11">113,118,119,114</quad4>
			<quad4 id="12">114,119,120,115</quad4>
			<quad4 id="13">116,121,122,117</quad4>
			<quad4 id="14">117,122,123,118</quad4>
			<quad4 id="15">118,123,124,119</quad4>
			<quad4 id="16">119,124,125,120</quad4>
		</Surface>
	</Mesh>
	<MeshDomains>
		<SolidDomain name="Part1" mat="Material1"/>
	</MeshDomains>
	<Boundary>
		<bc name="FixedConcentration01" type="zero concentration" node_set="FixedBC1">
			<dof>c1</dof>
		</bc>
	</Boundary>
	<Loads>
		<surface_load name="ConcentrationFlux1" type="concentration flux" surface="SurfaceLoad1">
			<solute_id>1</solute_id>
			<flux lc="1">-1</flux>
		</surface_load>
	</Loads>
	<LoadData>
		<load_controller id="1" type="loadcurve">
			<points>
				<point>0,0</point>
				<point>1,1</point>
			</points>
		</load_controller>
	</LoadData>	
	<Output>
		<plotfile type="febio">
			<var type="concentration['c1']=c1"/>
			<var type="concentration['c2']=c2"/>
			<var type="concentration flux['c1']=solute 1 flux"/>
			<var type="concentration flux['c2']=solute 2 flux"/>
		</plotfile>
	</Output>
</febio_spec>
