<?xml version="1.0" encoding="ISO-8859-1"?>
<febio_spec version="4.0">
	<Module type="reaction-diffusion"/>
	<Control>
		<time_steps>100</time_steps>
		<step_size>0.5</step_size>
		<solver type="reaction-diffusion">
			<Ctol>0.001</Ctol>
			<Rtol>0.01</Rtol>
			<min_residual>1e-20</min_residual>
			<alpha>0.5</alpha>
		</solver>
	</Control>
	<Globals>
		<Solutes>
			<solute id="1" name="A"/>
			<solute id="2" name="B"/>
		</Solutes>
	</Globals>
	<Material>
		<material id="1" name="Material1" type="reaction-diffusion">
			<species name="A">
				<diffusivity>1</diffusivity>
			</species>
			<species name="B">
				<diffusivity>1</diffusivity>
			</species>
			<reaction type="mass action">
				<equation>A --></equation>
				<rate_constant>5</rate_constant>
			</reaction>
		</material>
	</Material>
	<Mesh>
		<Nodes name="Object01">
			<node id="1">-0.5,-0.5,0</node>
			<node id="2">-0.5,-0.5,0.125</node>
			<node id="3">-0.5,-0.5,0.25</node>
			<node id="4">-0.5,-0.5,0.375</node>
			<node id="5">-0.5,-0.5,0.5</node>
			<node id="6">-0.5,-0.5,0.625</node>
			<node id="7">-0.5,-0.5,0.75</node>
			<node id="8">-0.5,-0.5,0.875</node>
			<node id="9">-0.5,-0.5,1</node>
			<node id="10">-0.5,-0.375,0</node>
			<node id="11">-0.5,-0.375,0.125</node>
			<node id="12">-0.5,-0.375,0.25</node>
			<node id="13">-0.5,-0.375,0.375</node>
			<node id="14">-0.5,-0.375,0.5</node>
			<node id="15">-0.5,-0.375,0.625</node>
			<node id="16">-0.5,-0.375,0.75</node>
			<node id="17">-0.5,-0.375,0.875</node>
			<node id="18">-0.5,-0.375,1</node>
			<node id="19">-0.5,-0.25,0</node>
			<node id="20">-0.5,-0.25,0.125</node>
<!-- ... 385 like lines cut -->
		</Nodes>
		<Elements type="hex8" name="Part1">
			<elem id="1">1,82,91,10,2,83,92,11</elem>
			<elem id="2">2,83,92,11,3,84,93,12</elem>
			<elem id="3">3,84,93,12,4,85,94,13</elem>
			<elem id="4">4,85,94,13,5,86,95,14</elem>
			<elem id="5">5,86,95,14,6,87,96,15</elem>
			<elem id="6">6,87,96,15,7,88,97,16</elem>
			<elem id="7">7,88,97,16,8,89,98,17</elem>
			<elem id="8">8,89,98,17,9,90,99,18</elem>
			<elem id="9">10,91,100,19,11,92,101,20</elem>
			<elem id="10">11,92,101,20,12,93,102,21</elem>
			<elem id="11">12,93,102,21,13,94,103,22</elem>
			<elem id="12">13,94,103,22,14,95,104,23</elem>
			<elem id="13">14,95,104,23,15,96,105,24</elem>
			<elem id="14">15,96,105,24,16,97,106,25</elem>
			<elem id="15">16,97,106,25,17,98,107,26</elem>
			<elem id="16">17,98,107,26,18,99,108,27</elem>
			<elem id="17">19,100,109,28,20,101,110,29</elem>
			<elem id="18">20,101,110,29,21,102,111,30</elem>
			<elem id="19">21,102,111,30,22,103,112,31</elem>
			<elem id="20">22,103,112,31,23,104,113,32</elem>
<!-- ... 236 like lines cut -->
		</Elements>
		<NodeSet name="FixedBC1">
			1, 2, 3, 4, 5, 6, 7, 8, 9, 10,
			11, 12, 13, 14, 15, 16, 17, 18, 19, 20,
			21, 22, 23, 24, 25, 26, 27, 28, 29, 30,
			31, 32, 33, 34, 35, 36, 37, 38, 39, 40,
			41, 42, 43, 44, 45, 46, 47, 48, 49, 50,
			51, 52, 53, 54, 55, 56, 57, 58, 59, 60,
			61, 62, 63, 64, 65, 66, 67, 68, 69, 70,
			71, 72, 73, 74, 75, 76, 77, 78, 79, 80, 81
		</NodeSet>
		<Surface name="SurfaceLoad1">
			<quad4 id="1">325,334,335,326</quad4>
			<quad4 id="2">326,335,336,327</quad4>
			<quad4 id="3">327,336,337,328</quad4>
			<quad4 id="4">328,337,338,329</quad4>
			<quad4 id="5">329,338,339,330</quad4>
			<quad4 id="6">330,339,340,331</quad4>
			<quad4 id="7">331,340,341,332</quad4>
			<quad4 id="8">332,341,342,333</quad4>
			<quad4 id="9">334,343,344,335</quad4>
			<quad4 id="10">335,344,345,336</quad4>
			<quad4 id="11">336,345,346,337</quad4>
			<quad4 id="12">337,346,347,338</quad4>
			<quad4 id="13">338,347,348,339</quad4>
			<quad4 id="14">339,348,349,340</quad4>
			<quad4 id="15">340,349,350,341</quad4>
			<quad4 id="16">341,350,351,342</quad4>
			<quad4 id="17">343,352,353,344</quad4>
			<quad4 id="18">344,353,354,345</quad4>
			<quad4 id="19">345,354,355,346</quad4>
			<quad4 id="20">346,355,356,347</quad4>
<!-- ... 44 like lines cut -->
		</Surface>
	</Mesh>
	<MeshDomains>
		<SolidDomain name="Part1" mat="Material1"/>
	</MeshDomains>
	<Boundary>
		<bc name="FixedConcentration01" type="zero concentration" node_set="FixedBC1">
			<dof>c1</dof>
		</bc>
	</Boundary>
	<Loads>
		<surface_load name="ConcentrationFlux1" type="concentration flux" surface="SurfaceLoad1">
			<solute_id>1</solute_id>
			<flux lc="1">-1</flux>
		</surface_load>
	</Loads>
	<LoadData>
		<load_controller id="1" type="loadcurve">
			<points>
				<point>0,0</point>
				<point>1,1</point>
			</points>
		</load_controller>
	</LoadData>	
	<Output>
		<plotfile type="febio">
			<var type="concentration['c1']=c1"/>
			<var type="concentration['c2']=c2"/>
			<var type="concentration flux['c1']=solute 1 flux"/>
			<var type="concentration flux['c2']=solute 2 flux"/>
		</plotfile>
	</Output>
</febio_spec>
