<?xml version="1.0" encoding="ISO-8859-1"?>
<febio_spec version="4.0">
  <Module type="reaction-diffusion"/>
  <Control>
    	<time_steps>80000</time_steps>
		<step_size>0.1</step_size>
		<solver>
			<max_refs>5</max_refs>
			<Rtol>0</Rtol>
			<Ctol>0</Ctol>
			<force_positive_concentrations>1</force_positive_concentrations>
			<alpha>0.5</alpha>
		</solver>
		<time_stepper>
			<dtmin>0.001</dtmin>
			<dtmax>100</dtmax>
			<max_retries>10</max_retries>
			<opt_iter>15</opt_iter>
		</time_stepper>
  </Control>
	<Globals>
		<Constants>
			<T>293</T>
			<R>8.314</R>
		</Constants>
		<Solutes>
		  <solid_bound id="1" name="SBS1"/>
		  <solid_bound id="2" name="SBS2"/>
		</Solutes>
	</Globals>
	<Material>
		<material id="1" name="Matrix" type="reaction-diffusion">
		  <solid_volume_fraction>0</solid_volume_fraction>
		  <solid_bound_species name="SBS1">
		    <rho0>1.1e-4</rho0>
		    <molar_mass>1</molar_mass>
		    <density>1</density>
		  </solid_bound_species>
		  <solid_bound_species name="SBS2">
		    <rho0></rho0>
		    <molar_mass>1</molar_mass>
		    <density>1</density>
		  </solid_bound_species>
		  <reaction type="Michaelis-Menten">
			<max_rate>1e-6</max_rate>
			<Km>1e-3</Km>
			<substrate>SBS1</substrate>
			<product>SBS2</product>
		  </reaction>
		</material>
	</Material>
	<Mesh>
		<Nodes name="Object01">
			<node id="1">0,0,-2.1175824e-22</node>
			<node id="2">0,0,2e-06</node>
			<node id="3">0,2e-06,-2.1175824e-22</node>
			<node id="4">0,2e-06,2e-06</node>
			<node id="5">0,4e-06,-2.1175824e-22</node>
			<node id="6">0,4e-06,2e-06</node>
			<node id="7">0,6e-06,-2.1175824e-22</node>
			<node id="8">0,6e-06,2e-06</node>
			<node id="9">0,8e-06,-2.1175824e-22</node>
			<node id="10">0,8e-06,2e-06</node>
			<node id="11">0,1e-05,-2.1175824e-22</node>
			<node id="12">0,1e-05,2e-06</node>
			<node id="13">0,1.2e-05,-2.1175824e-22</node>
			<node id="14">0,1.2e-05,2e-06</node>
			<node id="15">0,1.4e-05,-2.1175824e-22</node>
			<node id="16">0,1.4e-05,2e-06</node>
			<node id="17">0,1.6e-05,-2.1175824e-22</node>
			<node id="18">0,1.6e-05,2e-06</node>
			<node id="19">0,1.8e-05,-2.1175824e-22</node>
			<node id="20">0,1.8e-05,2e-06</node>
<!-- ... 862 like lines cut -->
		</Nodes>
		<Elements type="hex8" name="Part1">
			<elem id="1">1,43,45,3,2,44,46,4</elem>
			<elem id="2">3,45,47,5,4,46,48,6</elem>
			<elem id="3">5,47,49,7,6,48,50,8</elem>
			<elem id="4">7,49,51,9,8,50,52,10</elem>
			<elem id="5">9,51,53,11,10,52,54,12</elem>
			<elem id="6">11,53,55,13,12,54,56,14</elem>
			<elem id="7">13,55,57,15,14,56,58,16</elem>
			<elem id="8">15,57,59,17,16,58,60,18</elem>
			<elem id="9">17,59,61,19,18,60,62,20</elem>
			<elem id="10">19,61,63,21,20,62,64,22</elem>
			<elem id="11">21,63,65,23,22,64,66,24</elem>
			<elem id="12">23,65,67,25,24,66,68,26</elem>
			<elem id="13">25,67,69,27,26,68,70,28</elem>
			<elem id="14">27,69,71,29,28,70,72,30</elem>
			<elem id="15">29,71,73,31,30,72,74,32</elem>
			<elem id="16">31,73,75,33,32,74,76,34</elem>
			<elem id="17">33,75,77,35,34,76,78,36</elem>
			<elem id="18">35,77,79,37,36,78,80,38</elem>
			<elem id="19">37,79,81,39,38,80,82,40</elem>
			<elem id="20">39,81,83,41,40,82,84,42</elem>
<!-- ... 380 like lines cut -->
		</Elements>
	</Mesh>
	<MeshDomains>
		<SolidDomain name="Part1" mat="Matrix"/>
	</MeshDomains>
	<Output>
		<plotfile type="febio">
			<var type="sbs concentration['SBS1']=[SBS1]"/>
			<var type="sbs apparent density['SBS1']=rho SBS1"/>
			<var type="sbs concentration['SBS2']=[SBS2]"/>
			<var type="sbs apparent density['SBS2']=rho SBS2"/>
		</plotfile>
	</Output>
</febio_spec>
