<?xml version="1.0" encoding="ISO-8859-1"?>
<febio_spec version="4.0">
	<Module type="reaction-diffusion"/>
	<Control>
		<time_steps>10</time_steps>
		<step_size>1</step_size>
		<solver type="reaction-diffusion">
			<alpha>0.5</alpha>
		</solver>
	</Control>
	<Globals>
		<Solutes>
			<solute id="1" name="A"/>
		</Solutes>
		<SolidBoundMolecules>
			<solid_bound id="1" name="B"/>
		</SolidBoundMolecules>
	</Globals>
	<Material>
		<material id="1" name="Cartilage" type="reaction-diffusion">
			<solid_volume_fraction>0</solid_volume_fraction>
			<species name="A">
				<diffusivity>0.0</diffusivity>
			</species>
			<solid_bound_species name="B">
				<rho0>0</rho0>
				<density>1</density>
				<molar_mass>1</molar_mass>
			</solid_bound_species>
			<reaction type="mass action">
			  <equation>A->B</equation>
			  <rate_constant>1</rate_constant>
			</reaction>
		</material>
	</Material>
	<Mesh>
		<Nodes name="Object01">
			<node id="1">-0.5,-0.5,0</node>
			<node id="2">-0.5,-0.5,0.014179906</node>
			<node id="3">-0.5,-0.5,0.026800022</node>
			<node id="4">-0.5,-0.5,0.038031926</node>
			<node id="5">-0.5,-0.5,0.04802832</node>
			<node id="6">-0.5,-0.5,0.056925111</node>
			<node id="7">-0.5,-0.5,0.064843255</node>
			<node id="8">-0.5,-0.5,0.071890403</node>
			<node id="9">-0.5,-0.5,0.078162365</node>
			<node id="10">-0.5,-0.5,0.083744411</node>
			<node id="11">-0.5,-0.5,0.088712431</node>
			<node id="12">-0.5,-0.5,0.09313397</node>
			<node id="13">-0.5,-0.5,0.097069139</node>
			<node id="14">-0.5,-0.5,0.10057144</node>
			<node id="15">-0.5,-0.5,0.10368849</node>
			<node id="16">-0.5,-0.5,0.10646266</node>
			<node id="17">-0.5,-0.5,0.10893167</node>
			<node id="18">-0.5,-0.5,0.1111291</node>
			<node id="19">-0.5,-0.5,0.1130848</node>
			<node id="20">-0.5,-0.5,0.11482538</node>
<!-- ... 104 like lines cut -->
		</Nodes>
		<Elements type="hex8" name="_no_name">
			<elem id="1">1,63,94,32,2,64,95,33</elem>
			<elem id="2">2,64,95,33,3,65,96,34</elem>
			<elem id="3">3,65,96,34,4,66,97,35</elem>
			<elem id="4">4,66,97,35,5,67,98,36</elem>
			<elem id="5">5,67,98,36,6,68,99,37</elem>
			<elem id="6">6,68,99,37,7,69,100,38</elem>
			<elem id="7">7,69,100,38,8,70,101,39</elem>
			<elem id="8">8,70,101,39,9,71,102,40</elem>
			<elem id="9">9,71,102,40,10,72,103,41</elem>
			<elem id="10">10,72,103,41,11,73,104,42</elem>
			<elem id="11">11,73,104,42,12,74,105,43</elem>
			<elem id="12">12,74,105,43,13,75,106,44</elem>
			<elem id="13">13,75,106,44,14,76,107,45</elem>
			<elem id="14">14,76,107,45,15,77,108,46</elem>
			<elem id="15">15,77,108,46,16,78,109,47</elem>
			<elem id="16">16,78,109,47,17,79,110,48</elem>
			<elem id="17">17,79,110,48,18,80,111,49</elem>
			<elem id="18">18,80,111,49,19,81,112,50</elem>
			<elem id="19">19,81,112,50,20,82,113,51</elem>
			<elem id="20">20,82,113,51,21,83,114,52</elem>
<!-- ... 10 like lines cut -->
		</Elements>
	</Mesh>
	<MeshDomains>
		<SolidDomain name="_no_name" mat="Cartilage"/>
	</MeshDomains>
	<Initial>
		<ic type="initial concentration" node_set="Object01">
			<dof>c1</dof>
			<value>0.0001</value>
		</ic>
	</Initial>
	<Output>
		<plotfile type="febio">
			<var type="concentration['c1']"/>
			<var type="actual concentration['c1']"/>
			<var type="sbs concentration['B']"/>
			<var type="solid volume fraction"/>
		</plotfile>
	</Output>
</febio_spec>
