<?xml version="1.0" encoding="ISO-8859-1"?>
<febio_spec version="4.0">
	<Module type="reaction-diffusion"/>
	<Control>
		<analysis type="static"/>
		<time_steps>20000</time_steps>
		<step_size>1</step_size>
		<time_stepper>
			<dtmin>0.1</dtmin>
			<dtmax lc="1"></dtmax>
			<max_retries>5</max_retries>
			<opt_iter>15</opt_iter>
		</time_stepper>
		<solver>
			<max_refs>5</max_refs>
			<Ctol>0.01</Ctol>
			<Rtol>0</Rtol>
			<min_residual>1e-20</min_residual>
			<alpha>1.0</alpha>
			<force_positive_concentrations>0</force_positive_concentrations>
		</solver>
		<plot_level>PLOT_MUST_POINTS</plot_level>
	</Control>
	<Globals>
		<Constants>
			<T>298.15</T>
			<R>8.314</R>
		</Constants>
		<Solutes>
			<solute id="1" name="V165"/>
			<solute id="2" name="P"/>
			<solute id="3" name="V114"/>
		</Solutes>
		<SolidBoundMolecules>
			<solid_bound id="1" name="H">
				<charge_number>0</charge_number>
				<molar_mass>110</molar_mass>
				<density>1430</density>
			</solid_bound>
			<solid_bound id="2" name="V165H">
				<charge_number>0</charge_number>
				<molar_mass>148.2</molar_mass>
				<density>1430</density>
			</solid_bound>
			<solid_bound id="3" name="R2">
				<charge_number>0</charge_number>
				<molar_mass>151.5</molar_mass>
				<density>1430</density>
			</solid_bound>
			<solid_bound id="4" name="V165R2">
				<charge_number>0</charge_number>
				<molar_mass>189.7</molar_mass>
				<density>1430</density>
			</solid_bound>
			<solid_bound id="5" name="V114R2">
				<charge_number>0</charge_number>
				<molar_mass>179.9</molar_mass>
				<density>1430</density>
			</solid_bound>
		</SolidBoundMolecules>
	</Globals>
	<Material>
		<material id="1" name="ECM" type="reaction-diffusion">
			<solid_volume_fraction>0.15</solid_volume_fraction>
			<species name="V165">
				<diffusivity>6.88e-11</diffusivity>
			</species>
			<solid_bound_species name="H">
				<rho0>0.0701221</rho0>
				<rhomin>0</rhomin>
				<rhomax>0</rhomax>
				<molar_mass>110</molar_mass>
				<density>1430</density>
			</solid_bound_species>
			<solid_bound_species name="V165H">
				<rho0>3.96789e-6</rho0>
				<rhomin>0</rhomin>
				<rhomax>0</rhomax>
				<molar_mass>148.2</molar_mass>
				<density>1430</density>
			</solid_bound_species>
			<species name="P">
				<diffusivity>6.88e-11</diffusivity>
			</species>
			<species name="V114">
				<diffusivity>6.88e-11</diffusivity>
			</species>
			<reaction name="V165 MB" type="mass action">
				<equation>V165+H->V165H</equation>
				<rate_constant>420</rate_constant>
			</reaction>
			<reaction name="V165 MR" type="mass action">
				<equation>V165H->V165+H</equation>
				<rate_constant>0.01</rate_constant>
			</reaction>
			<reaction name="V165 P" type="mass action">
				<equation>V165+P->V114+P</equation>
				<rate_constant>0.631</rate_constant>
			</reaction>
			<reaction name="V165H P" type="mass action">
				<equation>V165H+P->V114+H+P</equation>
				<rate_constant>0.631</rate_constant>
			</reaction>
		</material>
		<material id="2" name="Membrane" type="reaction-diffusion">
			<solid_volume_fraction>0.8</solid_volume_fraction>
			<species name="V165">
				<diffusivity>1.8e-11</diffusivity>
			</species>
			<solid_bound_species name="H">
				<rho0>0.285987989</rho0>
				<rhomin>0</rhomin>
				<rhomax>0</rhomax>
				<molar_mass>110</molar_mass>
				<density>1430</density>
			</solid_bound_species>
			<solid_bound_species name="V165H">
				<rho0>1.61828e-5</rho0>
				<rhomin>0</rhomin>
				<rhomax>0</rhomax>
				<molar_mass>148.2</molar_mass>
				<density>1430</density>
			</solid_bound_species>
			<solid_bound_species name="R2">
				<rho0>0.11248623</rho0>
				<rhomin>0</rhomin>
				<rhomax>0</rhomax>
				<molar_mass>151.5</molar_mass>
				<density>1430</density>
			</solid_bound_species>
			<solid_bound_species name="V165R2">
				<rho0>0.001091118</rho0>
				<rhomin>0</rhomin>
				<rhomax>0</rhomax>
				<molar_mass>189.7</molar_mass>
				<density>1430</density>
			</solid_bound_species>
			<solid_bound_species name="V114R2">
				<rho0>0</rho0>
				<rhomin>0</rhomin>
				<rhomax>0</rhomax>
				<molar_mass>179.9</molar_mass>
				<density>1430</density>
			</solid_bound_species>
			<species name="P">
				<diffusivity>1.8e-11</diffusivity>
			</species>
			<species name="V114">
				<diffusivity>1.8e-11</diffusivity>
			</species>
			<reaction name="V165 MB" type="mass action">
				<equation>V165+H->V165H</equation>
				<rate_constant>420</rate_constant>
			</reaction>
			<reaction name="V165 MR" type="mass action">
				<equation>V165H->V165+H</equation>
				<rate_constant>0.01</rate_constant>
			</reaction>
			<reaction name="V165 RB" type="mass action">
				<equation>V165+R2->V165R2</equation>
				<rate_constant>1e4</rate_constant>
			</reaction>
			<reaction name="V165 RR" type="mass action">
				<equation>V165R2->V165+R2</equation>
				<rate_constant>1e-3</rate_constant>
			</reaction>
			<reaction name="R2 exp" type="mass action">
				<equation>->R2</equation>
				<rate_constant>1.04792e-6</rate_constant>
			</reaction>
			<reaction name="R2 int" type="mass action">
				<equation>R2-></equation>
				<rate_constant>2.8e-4</rate_constant>
			</reaction>
			<reaction name="V165R2 int" type="mass action">
				<equation>V165R2-></equation>
				<rate_constant>2.8e-4</rate_constant>
			</reaction>
			<reaction name="V165 P" type="mass action">
				<equation>V165+P->V114+P</equation>
				<rate_constant>0.631</rate_constant>
			</reaction>
			<reaction name="V165H P" type="mass action">
				<equation>V165H+P->V114+H+P</equation>
				<rate_constant>0.631</rate_constant>
			</reaction>
			<reaction name="V114 RB" type="mass action">
				<equation>V114+R2->V114R2</equation>
				<rate_constant>1e4</rate_constant>
			</reaction>
			<reaction name="V114R2 int" type="mass action">
				<equation>V114R2-></equation>
				<rate_constant>2.8e-4</rate_constant>
			</reaction>
		</material>
	</Material>
	<Mesh>
		<Nodes name="Object01">
			<node id="1">0,-4.5e-05,0</node>
			<node id="2">0,-4.5e-05,1e-06</node>
			<node id="3">0,-4e-05,0</node>
			<node id="4">0,-4e-05,1e-06</node>
			<node id="5">0,-3.5e-05,0</node>
			<node id="6">0,-3.5e-05,1e-06</node>
			<node id="7">0,-3e-05,0</node>
			<node id="8">0,-3e-05,1e-06</node>
			<node id="9">0,-2.5e-05,0</node>
			<node id="10">0,-2.5e-05,1e-06</node>
			<node id="11">0,-2e-05,0</node>
			<node id="12">0,-2e-05,1e-06</node>
			<node id="13">0,-1.5e-05,0</node>
			<node id="14">0,-1.5e-05,1e-06</node>
			<node id="15">0,-1e-05,0</node>
			<node id="16">0,-1e-05,1e-06</node>
			<node id="17">0,-5e-06,0</node>
			<node id="18">0,-5e-06,1e-06</node>
			<node id="19">0,5e-06,0</node>
			<node id="20">0,5e-06,1e-06</node>
<!-- ... 904 like lines cut -->
		</Nodes>
		<Elements type="hex8" name="Part4">
			<elem id="1">897,37,39,1,898,38,40,2</elem>
			<elem id="2">1,39,41,3,2,40,42,4</elem>
			<elem id="3">3,41,43,5,4,42,44,6</elem>
			<elem id="4">5,43,45,7,6,44,46,8</elem>
			<elem id="5">7,45,47,9,8,46,48,10</elem>
			<elem id="6">9,47,49,11,10,48,50,12</elem>
			<elem id="7">11,49,51,13,12,50,52,14</elem>
			<elem id="8">13,51,53,15,14,52,54,16</elem>
			<elem id="9">15,53,55,17,16,54,56,18</elem>
			<elem id="10">17,55,57,921,18,56,58,922</elem>
			<elem id="11">921,57,59,19,922,58,60,20</elem>
			<elem id="12">19,59,61,21,20,60,62,22</elem>
			<elem id="13">21,61,63,23,22,62,64,24</elem>
			<elem id="14">23,63,65,25,24,64,66,26</elem>
			<elem id="15">25,65,67,27,26,66,68,28</elem>
			<elem id="16">27,67,69,29,28,68,70,30</elem>
			<elem id="17">29,69,71,31,30,70,72,32</elem>
			<elem id="18">31,71,73,33,32,72,74,34</elem>
			<elem id="19">33,73,75,35,34,74,76,36</elem>
			<elem id="20">35,75,77,923,36,76,78,924</elem>
<!-- ... 380 like lines cut -->
		</Elements>
		<Elements type="hex8" name="Part14">
			<elem id="401">877,897,1,879,878,898,2,880</elem>
			<elem id="402">879,1,3,881,880,2,4,882</elem>
			<elem id="403">881,3,5,883,882,4,6,884</elem>
			<elem id="404">883,5,7,885,884,6,8,886</elem>
			<elem id="405">885,7,9,887,886,8,10,888</elem>
			<elem id="406">887,9,11,889,888,10,12,890</elem>
			<elem id="407">889,11,13,891,890,12,14,892</elem>
			<elem id="408">891,13,15,893,892,14,16,894</elem>
			<elem id="409">893,15,17,895,894,16,18,896</elem>
			<elem id="410">895,17,921,899,896,18,922,900</elem>
		</Elements>
		<Elements type="hex8" name="Part15">
			<elem id="411">899,921,19,901,900,922,20,902</elem>
			<elem id="412">901,19,21,903,902,20,22,904</elem>
			<elem id="413">903,21,23,905,904,22,24,906</elem>
			<elem id="414">905,23,25,907,906,24,26,908</elem>
			<elem id="415">907,25,27,909,908,26,28,910</elem>
			<elem id="416">909,27,29,911,910,28,30,912</elem>
			<elem id="417">911,29,31,913,912,30,32,914</elem>
			<elem id="418">913,31,33,915,914,32,34,916</elem>
			<elem id="419">915,33,35,917,916,34,36,918</elem>
			<elem id="420">917,35,923,919,918,36,924,920</elem>
		</Elements>
		<NodeSet name="V165Edges">
			37,38,77,78,79,80,119,120,121,122,161,
			162,163,164,203,204,205,206,245,246,247,
			248,287,288,289,290,329,330,331,332,371,
			372,373,374,413,414,415,416,455,456,457,
			458,497,498,499,500,539,540,541,542,581,
			582,583,584,623,624,625,626,665,666,667,
			668,707,708,709,710,749,750,751,752,791,
			792,793,794,833,834,835,836,837,838,839,
			840,841,842,843,844,845,846,847,848,849,
			850,851,852,853,854,855,856,857,858,859,
			860,861,862,863,864,865,866,867,868,869,
			870,871,872,873,874,875,876,897,898,919,
			920,923,924
		</NodeSet>
		<NodeSet name="FixedBC2">
			37,38,77,78,79,80,119,120,121,122,161,162,
			163,164,203,204,205,206,245,246,247,248,287,
			288,289,290,329,330,331,332,371,372,373,374,
			413,414,415,416,455,456,457,458,497,498,499,
			500,539,540,541,542,581,582,583,584,623,624,
			625,626,665,666,667,668,707,708,709,710,749,
			750,751,752,791,792,793,794,833,834,835,836,
			837,838,839,840,841,842,843,844,845,846,847,
			848,849,850,851,852,853,854,855,856,857,858,
			859,860,861,862,863,864,865,866,867,868,869,
			870,871,872,873,874,875,876,897,898,919,920,
			923,924
		</NodeSet>
		<NodeSet name="InitV165">
			1,2,3,4,5,6,7,8,9,10,
			11,12,13,14,15,16,17,18,19,20,
			21,22,23,24,25,26,27,28,29,30,
			31,32,33,34,35,36,37,38,39,40,
			41,42,43,44,45,46,47,48,49,50,
			51,52,53,54,55,56,57,58,59,60,
			61,62,63,64,65,66,67,68,69,70,
			71,72,73,74,75,76,77,78,79,80,
			81,82,83,84,85,86,87,88,89,90,
			91,92,93,94,95,96,97,98,99,100,
			101,102,103,104,105,106,107,108,109,110,
			111,112,113,114,115,116,117,118,119,120,
			121,122,123,124,125,126,127,128,129,130,
			131,132,133,134,135,136,137,138,139,140,
			141,142,143,144,145,146,147,148,149,150,
			151,152,153,154,155,156,157,158,159,160,
			161,162,163,164,165,166,167,168,169,170,
			171,172,173,174,175,176,177,178,179,180,
			181,182,183,184,185,186,187,188,189,190,
			191,192,193,194,195,196,197,198,199,200,
<!-- ... 71 like lines cut -->
		</NodeSet>
		<Surface name="SurfaceLoad2">
			<quad4 id="1">923,77,75,35</quad4>
			<quad4 id="2">35,75,73,33</quad4>
			<quad4 id="3">33,73,71,31</quad4>
			<quad4 id="4">31,71,69,29</quad4>
			<quad4 id="5">29,69,67,27</quad4>
			<quad4 id="6">27,67,65,25</quad4>
			<quad4 id="7">25,65,63,23</quad4>
			<quad4 id="8">23,63,61,21</quad4>
			<quad4 id="9">21,61,59,19</quad4>
			<quad4 id="10">19,59,57,921</quad4>
			<quad4 id="11">921,57,55,17</quad4>
			<quad4 id="12">17,55,53,15</quad4>
			<quad4 id="13">15,53,51,13</quad4>
			<quad4 id="14">13,51,49,11</quad4>
			<quad4 id="15">11,49,47,9</quad4>
			<quad4 id="16">9,47,45,7</quad4>
			<quad4 id="17">7,45,43,5</quad4>
			<quad4 id="18">5,43,41,3</quad4>
			<quad4 id="19">3,41,39,1</quad4>
			<quad4 id="20">1,39,37,897</quad4>
<!-- ... 820 like lines cut -->
		</Surface>
		<Surface name="SurfaceLoad4">
			<quad4 id="1">899,895,896,900</quad4>
			<quad4 id="2">895,893,894,896</quad4>
			<quad4 id="3">893,891,892,894</quad4>
			<quad4 id="4">891,889,890,892</quad4>
			<quad4 id="5">889,887,888,890</quad4>
			<quad4 id="6">887,885,886,888</quad4>
			<quad4 id="7">885,883,884,886</quad4>
			<quad4 id="8">883,881,882,884</quad4>
			<quad4 id="9">881,879,880,882</quad4>
			<quad4 id="10">879,877,878,880</quad4>
		</Surface>
	</Mesh>
	<MeshDomains>
		<SolidDomain name="Part4" mat="ECM"/>
		<SolidDomain name="Part14" mat="Membrane"/>
		<SolidDomain name="Part15" mat="ECM"/>
	</MeshDomains>
	<Boundary>
		<bc name="V165Edges" type="prescribed concentration" node_set="V165Edges">
			<dof>c1</dof>
			<value>1e-9</value>
		</bc>
		<bc name="FixedBC2" type="prescribed concentration" node_set="FixedBC2">
			<dof>c2</dof>
			<value>0</value>
		</bc>
		<bc name="FixedBC2" type="prescribed concentration" node_set="FixedBC2">
			<dof>c3</dof>
			<value>0</value>
		</bc>
	</Boundary>
	<Loads>
		<surface_load name="SoluteFlux0" type="soluteflux" surface="SurfaceLoad2">
			<flux>0</flux>
			<linear>1</linear>
			<solute_id>1</solute_id>
		</surface_load>
		<surface_load name="SoluteFlux1" type="soluteflux" surface="SurfaceLoad2">
			<flux>0</flux>
			<linear>1</linear>
			<solute_id>2</solute_id>
		</surface_load>
		<surface_load name="SoluteFlux2" type="soluteflux" surface="SurfaceLoad2">
			<flux>0</flux>
			<linear>1</linear>
			<solute_id>3</solute_id>
		</surface_load>
		<surface_load name="SoluteFlux3" type="soluteflux" surface="SurfaceLoad4">
			<flux>-2.7e-16</flux>
			<linear>1</linear>
			<solute_id>2</solute_id>
		</surface_load>
	</Loads>
	<Initial>
		<ic type="initial concentration" node_set="InitV165">
			<dof>c1</dof>
			<value>1e-09</value>
		</ic>
	</Initial>
	<LoadData>
		<load_controller id="1" type="loadcurve">
			<interpolate>STEP</interpolate>
			<points>
				<point>0,0</point>
				<point>100,100</point>
				<point>2000,100</point>
				<point>4000,100</point>
				<point>6000,100</point>
				<point>8000,100</point>
				<point>10000,100</point>
				<point>12000,100</point>
				<point>14000,100</point>
				<point>15000,100</point>
				<point>16000,100</point>
				<point>18000,100</point>
				<point>20000,100</point>
			</points>
		</load_controller>
	</LoadData>
	<Output>
		<plotfile type="febio">
			<var type="effective concentration['c1']=[V165]"/>
			<var type="effective concentration['c2']=[P]"/>
			<var type="concentration flux['c2']=[Pflux]"/>
			<var type="effective concentration['c3']=[V114]"/>	    
			<var type="sbs concentration['H']=[H]"/>
			<var type="sbs concentration['V165H']=[V165H]"/>
			<var type="sbs concentration['R2']=[R2]"/>
			<var type="sbs concentration['V165R2']=[V165R2]"/>
			<var type="sbs concentration['V114R2']=[V114R2]"/>
		</plotfile>
	</Output>
</febio_spec>
