<?xml version="1.0" encoding="ISO-8859-1"?>
<febio_spec version="4.0">
	<Module type="reaction-diffusion-convection"/>
	<Control>
		<analysis type="transient"/>
		<time_steps>100</time_steps>
		<step_size>0.1</step_size>
		<solver type="reaction-diffusion-convection">
			<max_refs>15</max_refs>
			<Ctol>0.001</Ctol>
			<Rtol>0.01</Rtol>
			<Stol>0</Stol>
			<alpha>0.5</alpha>
			<min_residual>1e-020</min_residual>
		</solver>
		<time_stepper>
			<dtmin>0.01</dtmin>
			<dtmax>0.1</dtmax>
			<max_retries>5</max_retries>
			<opt_iter>10</opt_iter>
		</time_stepper>
	</Control>
	<Globals>
		<Solutes>
			<solute id="1" name="solute1">
				<charge_number>0</charge_number>
				<molar_mass>1</molar_mass>
				<density>1</density>
			</solute>
			<solute id="2" name="solute2">
				<charge_number>0</charge_number>
				<molar_mass>1</molar_mass>
				<density>1</density>
			</solute>
			<solute id="3" name="solute3">
				<charge_number>0</charge_number>
				<molar_mass>1</molar_mass>
				<density>1</density>
			</solute>
		</Solutes>
	</Globals>
	<Material>
		<material id="1" name="Material1" type="reaction-diffusion">
			<solid_volume_fraction>0</solid_volume_fraction>
			<species name="solute1">
				<diffusivity>0.05</diffusivity>
			</species>
			<species name="solute2">
				<diffusivity>0.05</diffusivity>
			</species>
			<species name="solute3">
				<diffusivity>0.05</diffusivity>
			</species>
			<reaction type="mass action">
				<equation>solute1+solute2->solute3</equation>
				<rate_constant>100</rate_constant>
			</reaction>
		</material>
	</Material>
	<Mesh>
		<Nodes name="Object01">
			<node id="1">-2,-0.5,0</node>
			<node id="2">-2,-0.5,0.1</node>
			<node id="3">-2,-0.4,0</node>
			<node id="4">-2,-0.4,0.1</node>
			<node id="5">-2,-0.3,0</node>
			<node id="6">-2,-0.3,0.1</node>
			<node id="7">-2,-0.2,0</node>
			<node id="8">-2,-0.2,0.1</node>
			<node id="9">-2,-0.1,0</node>
			<node id="10">-2,-0.1,0.1</node>
			<node id="11">-2,-2.7755576e-17,0</node>
			<node id="12">-2,-2.7755576e-17,0.1</node>
			<node id="13">-2,0.1,0</node>
			<node id="14">-2,0.1,0.1</node>
			<node id="15">-2,0.2,0</node>
			<node id="16">-2,0.2,0.1</node>
			<node id="17">-2,0.3,0</node>
			<node id="18">-2,0.3,0.1</node>
			<node id="19">-2,0.4,0</node>
			<node id="20">-2,0.4,0.1</node>
<!-- ... 882 like lines cut -->
		</Nodes>
		<Elements type="hex8" name="Part1">
			<elem id="1">1,23,25,3,2,24,26,4</elem>
			<elem id="2">3,25,27,5,4,26,28,6</elem>
			<elem id="3">5,27,29,7,6,28,30,8</elem>
			<elem id="4">7,29,31,9,8,30,32,10</elem>
			<elem id="5">9,31,33,11,10,32,34,12</elem>
			<elem id="6">11,33,35,13,12,34,36,14</elem>
			<elem id="7">13,35,37,15,14,36,38,16</elem>
			<elem id="8">15,37,39,17,16,38,40,18</elem>
			<elem id="9">17,39,41,19,18,40,42,20</elem>
			<elem id="10">19,41,43,21,20,42,44,22</elem>
			<elem id="11">23,45,47,25,24,46,48,26</elem>
			<elem id="12">25,47,49,27,26,48,50,28</elem>
			<elem id="13">27,49,51,29,28,50,52,30</elem>
			<elem id="14">29,51,53,31,30,52,54,32</elem>
			<elem id="15">31,53,55,33,32,54,56,34</elem>
			<elem id="16">33,55,57,35,34,56,58,36</elem>
			<elem id="17">35,57,59,37,36,58,60,38</elem>
			<elem id="18">37,59,61,39,38,60,62,40</elem>
			<elem id="19">39,61,63,41,40,62,64,42</elem>
			<elem id="20">41,63,65,43,42,64,66,44</elem>
<!-- ... 380 like lines cut -->
		</Elements>
		<NodeSet name="FixedEffectiveConcentration1">
			1,2,3,4,5,6,7,8,9,10,11,
			12,13,14,15,16,17,18,19,20,21,22
		</NodeSet>
		<NodeSet name="FixedEffectiveConcentration2">
			1,2,3,4,5,6,7,8,9,10,11,12,
			13,14,15,16,17,18,19,20,21,22
		</NodeSet>
		<NodeSet name="NodalVelocities1">1:902</NodeSet>
		<Surface name="ConcentrationFlux1">
			<quad4 id="1">241,219,220,242</quad4>
			<quad4 id="2">219,197,198,220</quad4>
			<quad4 id="3">197,175,176,198</quad4>
			<quad4 id="4">175,153,154,176</quad4>
			<quad4 id="5">153,131,132,154</quad4>
			<quad4 id="6">131,109,110,132</quad4>
			<quad4 id="7">109,87,88,110</quad4>
			<quad4 id="8">87,65,66,88</quad4>
			<quad4 id="9">65,43,44,66</quad4>
			<quad4 id="10">43,21,22,44</quad4>
		</Surface>
		<Surface name="ConcentrationFlux2">
			<quad4 id="1">1,23,24,2</quad4>
			<quad4 id="2">23,45,46,24</quad4>
			<quad4 id="3">45,67,68,46</quad4>
			<quad4 id="4">67,89,90,68</quad4>
			<quad4 id="5">89,111,112,90</quad4>
			<quad4 id="6">111,133,134,112</quad4>
			<quad4 id="7">133,155,156,134</quad4>
			<quad4 id="8">155,177,178,156</quad4>
			<quad4 id="9">177,199,200,178</quad4>
			<quad4 id="10">199,221,222,200</quad4>
		</Surface>
	</Mesh>
	<MeshDomains>
		<SolidDomain name="Part1" mat="Material1"/>
	</MeshDomains>
	<MeshData>
		<NodeData name="init_vel" type="math" node_set="NodalVelocities1">
			<math>4*(0.5 - Y)*(Y + 0.5)</math>
		</NodeData>
	</MeshData>
	<Boundary>
		<bc name="FixedConcentration01" type="zero concentration" node_set="FixedEffectiveConcentration1">
			<dof>c1</dof>
		</bc>
		<bc name="FixedConcentration02" type="zero concentration" node_set="FixedEffectiveConcentration2">
			<dof>c2</dof>
		</bc>
	</Boundary>
	<Loads>
		<surface_load name="ConcentrationFlux1" type="concentration flux" surface="ConcentrationFlux1">
			<solute_id>1</solute_id>
			<flux>-0.01</flux>
		</surface_load>
		<surface_load name="ConcentrationFlux2" type="concentration flux" surface="ConcentrationFlux2">
			<solute_id>2</solute_id>
			<flux>-0.01</flux>
		</surface_load>
	</Loads>
	<Initial>
		<ic name="InitialVelocity01" type="initial velocity" node_set="NodalVelocities1">
			<dof>vx</dof>
			<value type="map">init_vel</value>
		</ic>
	</Initial>
	<Output>
		<plotfile type="febio">
			<var type="effective concentration['c1']"/>
			<var type="effective concentration['c2']"/>
			<var type="effective concentration['c3']"/>
			<var type="concentration flux['c1']"/>
			<var type="concentration flux['c2']"/>
			<var type="concentration flux['c3']"/>
			<var type="nodal velocity"/>
		</plotfile>
	</Output>
</febio_spec>
