<?xml version="1.0" encoding="ISO-8859-1"?>
<febio_spec version="4.0">
	<Module type="reaction-diffusion"/>
	<Control>
		<time_steps>80</time_steps>
		<step_size>0.05</step_size>
		<solver type="reaction-diffusion">
			<alpha>0.5</alpha>
		</solver>
	</Control>
	<Globals>
		<Solutes>
			<solute id="1" name="A"/>
		</Solutes>
		<SolidBoundMolecules>
			<solid_bound id="1" name="H">
				<charge_number>0</charge_number>
				<molar_mass>1</molar_mass>
				<density>1</density>
			</solid_bound>		
		</SolidBoundMolecules>
	</Globals>
	<Material>
		<material id="1" name="Material1" type="reaction-diffusion">
			<species name="A">
				<diffusivity>2.93e-3</diffusivity>
			</species>
			<solid_bound_species name="H">
				<rho0>0</rho0>
				<molar_mass>110</molar_mass>
				<density>1430</density>
			</solid_bound_species>
			<reaction type="mass action">
				<equation>H --> H + A</equation>
				<rate_constant>1.2e-5</rate_constant>
			</reaction>
		</material>
	</Material>
	<Mesh>
		<Nodes name="Object01">
			<node id="1">-0.5,-0.5,0</node>
			<node id="2">-0.5,-0.5,0.05</node>
			<node id="3">-0.5,-0.5,0.1</node>
			<node id="4">-0.5,-0.5,0.15</node>
			<node id="5">-0.5,-0.5,0.2</node>
			<node id="6">-0.5,-0.45,0</node>
			<node id="7">-0.5,-0.45,0.05</node>
			<node id="8">-0.5,-0.45,0.1</node>
			<node id="9">-0.5,-0.45,0.15</node>
			<node id="10">-0.5,-0.45,0.2</node>
			<node id="11">-0.5,-0.4,0</node>
			<node id="12">-0.5,-0.4,0.05</node>
			<node id="13">-0.5,-0.4,0.1</node>
			<node id="14">-0.5,-0.4,0.15</node>
			<node id="15">-0.5,-0.4,0.2</node>
			<node id="16">-0.5,-0.35,0</node>
			<node id="17">-0.5,-0.35,0.05</node>
			<node id="18">-0.5,-0.35,0.1</node>
			<node id="19">-0.5,-0.35,0.15</node>
			<node id="20">-0.5,-0.35,0.2</node>
<!-- ... 2185 like lines cut -->
		</Nodes>
		<Elements type="hex8" name="Part1">
			<elem id="1">1,106,111,6,2,107,112,7</elem>
			<elem id="2">2,107,112,7,3,108,113,8</elem>
			<elem id="3">3,108,113,8,4,109,114,9</elem>
			<elem id="4">4,109,114,9,5,110,115,10</elem>
			<elem id="5">6,111,116,11,7,112,117,12</elem>
			<elem id="6">7,112,117,12,8,113,118,13</elem>
			<elem id="7">8,113,118,13,9,114,119,14</elem>
			<elem id="8">9,114,119,14,10,115,120,15</elem>
			<elem id="9">11,116,121,16,12,117,122,17</elem>
			<elem id="10">12,117,122,17,13,118,123,18</elem>
			<elem id="11">13,118,123,18,14,119,124,19</elem>
			<elem id="12">14,119,124,19,15,120,125,20</elem>
			<elem id="13">16,121,126,21,17,122,127,22</elem>
			<elem id="14">17,122,127,22,18,123,128,23</elem>
			<elem id="15">18,123,128,23,19,124,129,24</elem>
			<elem id="16">19,124,129,24,20,125,130,25</elem>
			<elem id="17">21,126,131,26,22,127,132,27</elem>
			<elem id="18">22,127,132,27,23,128,133,28</elem>
			<elem id="19">23,128,133,28,24,129,134,29</elem>
			<elem id="20">24,129,134,29,25,130,135,30</elem>
<!-- ... 1580 like lines cut -->
		</Elements>
	</Mesh>
	<MeshDomains>
		<SolidDomain name="Part1" mat="Material1"/>
	</MeshDomains>
	<Loads>
		<body_load type="sbs point source">
			<sbs>1</sbs>
			<value>1e-5</value>
			<x lc="1">0.4</x>
			<y lc="2">0.4</y>
			<z>0.2</z>
		</body_load>
	</Loads>
 	<LoadData>
		<load_controller id="1" type="loadcurve">
			<interpolate>SMOOTH</interpolate>
			<extend>CONSTANT</extend>
			<points>
				<point>0, 0</point>
				<point>1, 1</point>
				<point>2, 0</point>
				<point>3,-1</point>
				<point>4,0</point>
			</points>
		</load_controller>
		<load_controller id="2" type="loadcurve">
			<interpolate>SMOOTH</interpolate>
			<extend>CONSTANT</extend>
			<points>
				<point>0, -1</point>
				<point>1, 0</point>
				<point>2, 1</point>
				<point>3, 0</point>
				<point>4, -1</point>
			</points>
		</load_controller>
	</LoadData>		
	<Output>
		<plotfile type="febio">
			<var type="concentration['c1']=A"/>
			<var type="sbs concentration['H']=H"/>
		</plotfile>
	</Output>
</febio_spec>
