<?xml version="1.0" encoding="ISO-8859-1"?>
<febio_spec version="3.0">
	<Module type="reaction-diffusion"/>
	<Control>
		<time_steps>10</time_steps>
		<step_size>0.1</step_size>
	</Control>
	<Globals>
		<Constants>
			<T>293</T>
			<R>8.314e-006</R>
			<Fc>9.6845e-005</Fc>
		</Constants>
		<Solutes>
			<solute id="1" name="A">
				<charge_number>0</charge_number>
				<molar_mass>1</molar_mass>
				<density>1</density>
			</solute>
		</Solutes>
	</Globals>
	<Material>
		<material id="1" name="Material1" type="reaction-diffusion">
			<species name="A">
				<diffusivity>1</diffusivity>
			</species>
		</material>
	</Material>
	<Mesh>
		<Nodes name="Object01">
			<node id="1">-0.5,-0.5,-0.1</node>
			<node id="2">-0.5,-0.5,-0.033333333</node>
			<node id="3">-0.5,-0.5,0.033333333</node>
			<node id="4">-0.5,-0.5,0.1</node>
			<node id="5">-0.5,-0.4,-0.1</node>
			<node id="6">-0.5,-0.4,-0.033333333</node>
			<node id="7">-0.5,-0.4,0.033333333</node>
			<node id="8">-0.5,-0.4,0.1</node>
			<node id="9">-0.5,-0.3,-0.1</node>
			<node id="10">-0.5,-0.3,-0.033333333</node>
			<node id="11">-0.5,-0.3,0.033333333</node>
			<node id="12">-0.5,-0.3,0.1</node>
			<node id="13">-0.5,-0.2,-0.1</node>
			<node id="14">-0.5,-0.2,-0.033333333</node>
			<node id="15">-0.5,-0.2,0.033333333</node>
			<node id="16">-0.5,-0.2,0.1</node>
			<node id="17">-0.5,-0.1,-0.1</node>
			<node id="18">-0.5,-0.1,-0.033333333</node>
			<node id="19">-0.5,-0.1,0.033333333</node>
			<node id="20">-0.5,-0.1,0.1</node>
<!-- ... 464 like lines cut -->
		</Nodes>
		<Elements type="hex8" name="Part1">
			<elem id="1">1,45,49,5,2,46,50,6</elem>
			<elem id="2">2,46,50,6,3,47,51,7</elem>
			<elem id="3">3,47,51,7,4,48,52,8</elem>
			<elem id="4">5,49,53,9,6,50,54,10</elem>
			<elem id="5">6,50,54,10,7,51,55,11</elem>
			<elem id="6">7,51,55,11,8,52,56,12</elem>
			<elem id="7">9,53,57,13,10,54,58,14</elem>
			<elem id="8">10,54,58,14,11,55,59,15</elem>
			<elem id="9">11,55,59,15,12,56,60,16</elem>
			<elem id="10">13,57,61,17,14,58,62,18</elem>
			<elem id="11">14,58,62,18,15,59,63,19</elem>
			<elem id="12">15,59,63,19,16,60,64,20</elem>
			<elem id="13">17,61,65,21,18,62,66,22</elem>
			<elem id="14">18,62,66,22,19,63,67,23</elem>
			<elem id="15">19,63,67,23,20,64,68,24</elem>
			<elem id="16">21,65,69,25,22,66,70,26</elem>
			<elem id="17">22,66,70,26,23,67,71,27</elem>
			<elem id="18">23,67,71,27,24,68,72,28</elem>
			<elem id="19">25,69,73,29,26,70,74,30</elem>
			<elem id="20">26,70,74,30,27,71,75,31</elem>
<!-- ... 280 like lines cut -->
		</Elements>
	</Mesh>
	<MeshDomains>
		<SolidDomain name="Part1" mat="Material1"/>
	</MeshDomains>
	<Loads>
		<body_load type="point source">
			<species>1</species>
			<rate>0.001</rate>
			<x lc="1">1</x>
			<y>0</y>
			<z>0</z>
		</body_load>
	</Loads>
	<LoadData>
		<load_controller id="1" type="loadcurve">
			<points>
				<pt>0.0,-0.5</pt>
				<pt>1.0, 0.5</pt>
			</points>
		</load_controller>
	</LoadData>		
	<Output>
		<plotfile type="febio">
			<var type="concentration['c1']=A"/>
		</plotfile>
	</Output>
</febio_spec>
