<?xml version="1.0" encoding="ISO-8859-1"?>
<!--
A Rigid ball with a prescribed displacement of -5.0 units in the z-direction
pushes down and slides on a cantilever board.

Convergence and contact penetration are better without using augmented Lagrangian.
This is the same problems as co11 (contact11) using the "element face" format for
the contact surface definition.
-->
<febio_spec version="3.0">
	<Module type="solid"/>
	<Control>
		<analysis>STATIC</analysis>
		<time_steps>50</time_steps>
		<step_size>0.02</step_size>
		<solver>
			<max_refs>15</max_refs>
			<max_ups>10</max_ups>
			<diverge_reform>1</diverge_reform>
			<reform_each_time_step>1</reform_each_time_step>
			<dtol>0.001</dtol>
			<etol>0.01</etol>
			<rtol>0</rtol>
			<lstol>0.9</lstol>
			<min_residual>1e-20</min_residual>
			<qnmethod>BFGS</qnmethod>
			<rhoi>-2</rhoi>
		</solver>
		<time_stepper>
			<dtmin>0.01</dtmin>
			<dtmax lc="1"></dtmax>
			<max_retries>5</max_retries>
			<opt_iter>10</opt_iter>
		</time_stepper>
	</Control>
	<Globals>
		<Constants>
			<T>0</T>
			<R>0</R>
			<Fc>0</Fc>
		</Constants>
	</Globals>
	<Material>
		<material id="1" name="Material 2" type="neo-Hookean">
			<density>1</density>
			<E>10</E>
			<v>0.3</v>
		</material>
		<material id="2" name="Material 3" type="rigid body">
			<density>1</density>
		</material>
	</Material>
	<Mesh>
		<Nodes name="Object01">
			<node id="1">0.1074045,-0.5,0</node>
			<node id="2">0.1074045,-0.5,0.2</node>
			<node id="3">0.1074045,-0.25,0</node>
			<node id="4">0.1074045,-0.25,0.2</node>
			<node id="5">0.1074045,0,0</node>
			<node id="6">0.1074045,0,0.2</node>
			<node id="7">0.1074045,0.25,0</node>
			<node id="8">0.1074045,0.25,0.2</node>
			<node id="9">0.1074045,0.5,0</node>
			<node id="10">0.1074045,0.5,0.2</node>
			<node id="11">0.3074045,-0.5,0</node>
			<node id="12">0.3074045,-0.5,0.2</node>
			<node id="13">0.3074045,-0.25,0</node>
			<node id="14">0.3074045,-0.25,0.2</node>
			<node id="15">0.3074045,0,0</node>
			<node id="16">0.3074045,0,0.2</node>
			<node id="17">0.3074045,0.25,0</node>
			<node id="18">0.3074045,0.25,0.2</node>
			<node id="19">0.3074045,0.5,0</node>
			<node id="20">0.3074045,0.5,0.2</node>
<!-- ... 1891 like lines cut -->
		</Nodes>
		<Elements type="hex8" name="Part1">
			<elem id="1">1,11,13,3,2,12,14,4</elem>
			<elem id="2">3,13,15,5,4,14,16,6</elem>
			<elem id="3">5,15,17,7,6,16,18,8</elem>
			<elem id="4">7,17,19,9,8,18,20,10</elem>
			<elem id="5">11,21,23,13,12,22,24,14</elem>
			<elem id="6">13,23,25,15,14,24,26,16</elem>
			<elem id="7">15,25,27,17,16,26,28,18</elem>
			<elem id="8">17,27,29,19,18,28,30,20</elem>
			<elem id="9">21,31,33,23,22,32,34,24</elem>
			<elem id="10">23,33,35,25,24,34,36,26</elem>
			<elem id="11">25,35,37,27,26,36,38,28</elem>
			<elem id="12">27,37,39,29,28,38,40,30</elem>
			<elem id="13">31,41,43,33,32,42,44,34</elem>
			<elem id="14">33,43,45,35,34,44,46,36</elem>
			<elem id="15">35,45,47,37,36,46,48,38</elem>
			<elem id="16">37,47,49,39,38,48,50,40</elem>
			<elem id="17">41,51,53,43,42,52,54,44</elem>
			<elem id="18">43,53,55,45,44,54,56,46</elem>
			<elem id="19">45,55,57,47,46,56,58,48</elem>
			<elem id="20">47,57,59,49,48,58,60,50</elem>
<!-- ... 80 like lines cut -->
		</Elements>
		<Elements type="hex8" name="Part2">
			<elem id="101">261,262,269,268,310,311,318,317</elem>
			<elem id="102">262,263,270,269,311,312,319,318</elem>
			<elem id="103">263,264,271,270,312,313,320,319</elem>
			<elem id="104">264,265,272,271,313,314,321,320</elem>
			<elem id="105">265,266,273,272,314,315,322,321</elem>
			<elem id="106">266,267,274,273,315,316,323,322</elem>
			<elem id="107">268,269,276,275,317,318,325,324</elem>
			<elem id="108">269,270,277,276,318,319,326,325</elem>
			<elem id="109">270,271,278,277,319,320,327,326</elem>
			<elem id="110">271,272,279,278,320,321,328,327</elem>
			<elem id="111">272,273,280,279,321,322,329,328</elem>
			<elem id="112">273,274,281,280,322,323,330,329</elem>
			<elem id="113">275,276,283,282,324,325,332,331</elem>
			<elem id="114">276,277,284,283,325,326,333,332</elem>
			<elem id="115">277,278,285,284,326,327,334,333</elem>
			<elem id="116">278,279,286,285,327,328,335,334</elem>
			<elem id="117">279,280,287,286,328,329,336,335</elem>
			<elem id="118">280,281,288,287,329,330,337,336</elem>
			<elem id="119">282,283,290,289,331,332,339,338</elem>
			<elem id="120">283,284,291,290,332,333,340,339</elem>
<!-- ... 1492 like lines cut -->
		</Elements>
		<NodeSet name="FixedDisplacement01">
			<n id="1"/>
			<n id="2"/>
			<n id="3"/>
			<n id="4"/>
			<n id="5"/>
			<n id="6"/>
			<n id="7"/>
			<n id="8"/>
			<n id="9"/>
			<n id="10"/>
		</NodeSet>
		<NodeSet name="FixedDisplacement02">
			<n id="1"/>
			<n id="2"/>
			<n id="3"/>
			<n id="4"/>
			<n id="5"/>
			<n id="6"/>
			<n id="7"/>
			<n id="8"/>
			<n id="9"/>
			<n id="10"/>
		</NodeSet>
		<NodeSet name="FixedDisplacement03">
			<n id="1"/>
			<n id="2"/>
			<n id="3"/>
			<n id="4"/>
			<n id="5"/>
			<n id="6"/>
			<n id="7"/>
			<n id="8"/>
			<n id="9"/>
			<n id="10"/>
		</NodeSet>
		<Surface name="PrimarySurface01">
			<quad4 id="1">172,182,184,174</quad4>
			<quad4 id="2">174,184,186,176</quad4>
			<quad4 id="3">176,186,188,178</quad4>
			<quad4 id="4">178,188,190,180</quad4>
			<quad4 id="5">182,192,194,184</quad4>
			<quad4 id="6">184,194,196,186</quad4>
			<quad4 id="7">186,196,198,188</quad4>
			<quad4 id="8">188,198,200,190</quad4>
			<quad4 id="9">192,202,204,194</quad4>
			<quad4 id="10">194,204,206,196</quad4>
			<quad4 id="11">196,206,208,198</quad4>
			<quad4 id="12">198,208,210,200</quad4>
			<quad4 id="13">202,212,214,204</quad4>
			<quad4 id="14">204,214,216,206</quad4>
			<quad4 id="15">206,216,218,208</quad4>
			<quad4 id="16">208,218,220,210</quad4>
			<quad4 id="17">212,222,224,214</quad4>
			<quad4 id="18">214,224,226,216</quad4>
			<quad4 id="19">216,226,228,218</quad4>
			<quad4 id="20">218,228,230,220</quad4>
<!-- ... 12 like lines cut -->
		</Surface>
		<Surface name="SecondarySurface01">
			<quad4 id="1">1701,1694,1743,1750</quad4>
			<quad4 id="2">1694,1695,1744,1743</quad4>
			<quad4 id="3">1701,1702,1695,1694</quad4>
			<quad4 id="4">1695,1696,1745,1744</quad4>
			<quad4 id="5">1702,1703,1696,1695</quad4>
			<quad4 id="6">1696,1697,1746,1745</quad4>
			<quad4 id="7">1703,1704,1697,1696</quad4>
			<quad4 id="8">1697,1698,1747,1746</quad4>
			<quad4 id="9">1704,1705,1698,1697</quad4>
			<quad4 id="10">1698,1699,1748,1747</quad4>
			<quad4 id="11">1705,1706,1699,1698</quad4>
			<quad4 id="12">1700,1707,1751,1749</quad4>
			<quad4 id="13">1699,1700,1749,1748</quad4>
			<quad4 id="14">1706,1707,1700,1699</quad4>
			<quad4 id="15">1708,1701,1750,1752</quad4>
			<quad4 id="16">1708,1709,1702,1701</quad4>
			<quad4 id="17">1709,1710,1703,1702</quad4>
			<quad4 id="18">1710,1711,1704,1703</quad4>
			<quad4 id="19">1711,1712,1705,1704</quad4>
			<quad4 id="20">1712,1713,1706,1705</quad4>
<!-- ... 64 like lines cut -->
		</Surface>
		<ElementSet name="unnamed_set01">
			<e id="60"/>
		</ElementSet>
		<SurfacePair name="SlidingInterface01">
			<primary>PrimarySurface01</primary>
			<secondary>SecondarySurface01</secondary>
		</SurfacePair>
	</Mesh>
	<MeshDomains>
		<SolidDomain name="Part1" mat="Material 2"/>
		<SolidDomain name="Part2" mat="Material 3"/>
	</MeshDomains>
	<Boundary>
		<bc name="FixedDisplacement01" type="fix" node_set="FixedDisplacement01">
			<dofs>z</dofs>
		</bc>
		<bc name="FixedDisplacement02" type="fix" node_set="FixedDisplacement02">
			<dofs>y</dofs>
		</bc>
		<bc name="FixedDisplacement03" type="fix" node_set="FixedDisplacement03">
			<dofs>x</dofs>
		</bc>
	</Boundary>
	<Rigid>
		<rigid_constraint name="RigidFixed20" type="fix">
			<rb>2</rb>
			<dofs>Rx,Ry,Ru,Rv,Rw</dofs>
		</rigid_constraint>
		<rigid_constraint name="RigidDisplacement10" type="prescribe">
			<rb>2</rb>
			<dof>Rz</dof>
			<value lc="2">1</value>
		</rigid_constraint>
	</Rigid>
	<Contact>
		<contact type="sliding-node-on-facet" name="SlidingInterface01" surface_pair="SlidingInterface01">
			<laugon>0</laugon>
			<tolerance>0.01</tolerance>
			<penalty>12</penalty>
			<two_pass>0</two_pass>
			<auto_penalty>0</auto_penalty>
			<fric_coeff>0</fric_coeff>
			<fric_penalty>0</fric_penalty>
			<search_tol>0.01</search_tol>
			<minaug>0</minaug>
			<maxaug>10</maxaug>
			<gaptol>0</gaptol>
			<seg_up>0</seg_up>
			<update_penalty>0</update_penalty>
		</contact>
	</Contact>
	<LoadData>
		<load_controller id="1" type="loadcurve">
			<interpolate>STEP</interpolate>
			<points>
				<point>0,0</point>
				<point>0.8,0.1</point>
				<point>1,0.1</point>
			</points>
		</load_controller>
		<load_controller id="2" type="loadcurve">
			<interpolate>LINEAR</interpolate>
			<points>
				<point>0,0</point>
				<point>1,-5</point>
			</points>
		</load_controller>
	</LoadData>
	<Output>
		<plotfile type="febio">
			<var type="displacement"/>
			<var type="stress"/>
		</plotfile>
		<logfile>
			<element_data data="sz" elem_set="unnamed_set01"/>
		</logfile>
	</Output>
</febio_spec>
