<?xml version="1.0" encoding="ISO-8859-1"?>
<!--
A block with a prescribed zdisplacement of 1.5 units from time t=0 to t=7.5 slides
with friction along a rigid inclined plane.
-->
<febio_spec version="4.0">
	<Module type="solid"/>
	<Control>
		<analysis>STATIC</analysis>
		<time_steps>75</time_steps>
		<step_size>0.1</step_size>
		<plot_zero_state>0</plot_zero_state>
		<plot_range>0,-1</plot_range>
		<plot_level>PLOT_MAJOR_ITRS</plot_level>
		<output_level>OUTPUT_MAJOR_ITRS</output_level>
		<plot_stride>1</plot_stride>
		<adaptor_re_solve>1</adaptor_re_solve>
		<solver type="solid">
			<symmetric_stiffness>symmetric</symmetric_stiffness>
			<equation_scheme>staggered</equation_scheme>
			<equation_order>default</equation_order>
			<optimize_bw>0</optimize_bw>
			<lstol>0.9</lstol>
			<lsmin>0.01</lsmin>
			<lsiter>5</lsiter>
			<max_refs>15</max_refs>
			<check_zero_diagonal>0</check_zero_diagonal>
			<zero_diagonal_tol>0</zero_diagonal_tol>
			<force_partition>0</force_partition>
			<reform_each_time_step>1</reform_each_time_step>
			<reform_augment>0</reform_augment>
			<diverge_reform>1</diverge_reform>
			<min_residual>1e-20</min_residual>
			<max_residual>0</max_residual>
			<dtol>0.001</dtol>
			<etol>0.01</etol>
			<rtol>0</rtol>
			<rhoi>-2</rhoi>
			<alpha>1</alpha>
			<beta>0.25</beta>
			<gamma>0.5</gamma>
			<logSolve>0</logSolve>
			<arc_length>0</arc_length>
			<arc_length_scale>0</arc_length_scale>
			<qn_method type="BFGS">
				<max_ups>10</max_ups>
				<max_buffer_size>0</max_buffer_size>
				<cycle_buffer>1</cycle_buffer>
				<cmax>100000</cmax>
			</qn_method>
		</solver>
	</Control>
	<Globals>
		<Constants>
			<T>0</T>
			<R>0</R>
			<Fc>0</Fc>
		</Constants>
	</Globals>
	<Material>
		<material id="1" name="Material 1" type="neo-Hookean">
			<density>1</density>
			<E>1</E>
			<v>0</v>
		</material>
		<material id="2" name="Material 2" type="rigid body">
			<density>1</density>
			<E>1</E>
			<v>0</v>
		</material>
	</Material>
	<Mesh>
		<Nodes name="Object01">
			<node id="1">0,0,0</node>
			<node id="2">0,0,0.2</node>
			<node id="3">0,0,0.4</node>
			<node id="4">0,0,0.6</node>
			<node id="5">0,0,0.8</node>
			<node id="6">0,0,1</node>
			<node id="7">0,0,1.2</node>
			<node id="8">0,0,1.4</node>
			<node id="9">0,0,1.6</node>
			<node id="10">0,0,1.8</node>
			<node id="11">0,0,2</node>
			<node id="12">0,0.2,0</node>
			<node id="13">0,0.2,0.2</node>
			<node id="14">0,0.2,0.4</node>
			<node id="15">0,0.2,0.6</node>
			<node id="16">0,0.2,0.8</node>
			<node id="17">0,0.2,1</node>
			<node id="18">0,0.2,1.2</node>
			<node id="19">0,0.2,1.4</node>
			<node id="20">0,0.2,1.6</node>
<!-- ... 384 like lines cut -->
		</Nodes>
		<Elements type="hex8" name="Part13">
			<elem id="1">1,67,78,12,2,68,79,13</elem>
			<elem id="2">2,68,79,13,3,69,80,14</elem>
			<elem id="3">3,69,80,14,4,70,81,15</elem>
			<elem id="4">4,70,81,15,5,71,82,16</elem>
			<elem id="5">5,71,82,16,6,72,83,17</elem>
			<elem id="6">6,72,83,17,7,73,84,18</elem>
			<elem id="7">7,73,84,18,8,74,85,19</elem>
			<elem id="8">8,74,85,19,9,75,86,20</elem>
			<elem id="9">9,75,86,20,10,76,87,21</elem>
			<elem id="10">10,76,87,21,11,77,88,22</elem>
			<elem id="11">12,78,89,23,13,79,90,24</elem>
			<elem id="12">13,79,90,24,14,80,91,25</elem>
			<elem id="13">14,80,91,25,15,81,92,26</elem>
			<elem id="14">15,81,92,26,16,82,93,27</elem>
			<elem id="15">16,82,93,27,17,83,94,28</elem>
			<elem id="16">17,83,94,28,18,84,95,29</elem>
			<elem id="17">18,84,95,29,19,85,96,30</elem>
			<elem id="18">19,85,96,30,20,86,97,31</elem>
			<elem id="19">20,86,97,31,21,87,98,32</elem>
			<elem id="20">21,87,98,32,22,88,99,33</elem>
<!-- ... 230 like lines cut -->
		</Elements>
		<Elements type="hex8" name="Part14">
			<elem id="251">397,401,403,399,398,402,404,400</elem>
		</Elements>
		<NodeSet name="FixedDisplacement01">
			1, 2, 3, 4, 5, 6, 7, 8,
			9, 10, 11, 12, 13, 14, 15, 16,
			17, 18, 19, 20, 21, 22, 23, 24,
			25, 26, 27, 28, 29, 30, 31, 32,
			33, 34, 35, 36, 37, 38, 39, 40,
			41, 42, 43, 44, 45, 46, 47, 48,
			49, 50, 51, 52, 53, 54, 55, 56,
			57, 58, 59, 60, 61, 62, 63, 64,
			65, 66, 77, 88, 99, 110, 121, 132,
			143, 154, 165, 176, 187, 198, 209, 220,
			231, 242, 253, 264, 275, 286, 297, 308,
			319, 330, 341, 352, 363, 374, 385, 396
		</NodeSet>
		<NodeSet name="FixedDisplacement02">
			11, 22, 33, 44, 55, 66, 67, 68,
			69, 70, 71, 72, 73, 74, 75, 76,
			77, 88, 99, 110, 121, 132, 133, 134,
			135, 136, 137, 138, 139, 140, 141, 142,
			143, 154, 165, 176, 187, 198, 199, 200,
			201, 202, 203, 204, 205, 206, 207, 208,
			209, 220, 231, 242, 253, 264, 265, 266,
			267, 268, 269, 270, 271, 272, 273, 274,
			275, 286, 297, 308, 319, 330, 331, 332,
			333, 334, 335, 336, 337, 338, 339, 340,
			341, 352, 363, 374, 385, 396
		</NodeSet>
		<NodeSet name="PrescribedBC52">
			11, 22, 33, 44, 55, 66, 77, 88,
			99, 110, 121, 132, 143, 154, 165, 176,
			187, 198, 209, 220, 231, 242, 253, 264,
			275, 286, 297, 308, 319, 330, 341, 352,
			363, 374, 385, 396
		</NodeSet>
		<Surface name="PrimarySurface01">
			<quad4 id="1">331,342,343,332</quad4>
			<quad4 id="2">332,343,344,333</quad4>
			<quad4 id="3">333,344,345,334</quad4>
			<quad4 id="4">334,345,346,335</quad4>
			<quad4 id="5">335,346,347,336</quad4>
			<quad4 id="6">336,347,348,337</quad4>
			<quad4 id="7">337,348,349,338</quad4>
			<quad4 id="8">338,349,350,339</quad4>
			<quad4 id="9">339,350,351,340</quad4>
			<quad4 id="10">340,351,352,341</quad4>
			<quad4 id="11">342,353,354,343</quad4>
			<quad4 id="12">343,354,355,344</quad4>
			<quad4 id="13">344,355,356,345</quad4>
			<quad4 id="14">345,356,357,346</quad4>
			<quad4 id="15">346,357,358,347</quad4>
			<quad4 id="16">347,358,359,348</quad4>
			<quad4 id="17">348,359,360,349</quad4>
			<quad4 id="18">349,360,361,350</quad4>
			<quad4 id="19">350,361,362,351</quad4>
			<quad4 id="20">351,362,363,352</quad4>
<!-- ... 30 like lines cut -->
		</Surface>
		<Surface name="SecondarySurface01">
			<quad4 id="1">399,397,398,400</quad4>
		</Surface>
		<ElementSet name="unnamed_set01">
			205
		</ElementSet>
		<SurfacePair name="SlidingInterface01">
			<primary>PrimarySurface01</primary>
			<secondary>SecondarySurface01</secondary>
		</SurfacePair>
	</Mesh>
	<MeshDomains>
		<SolidDomain name="Part13" mat="Material 1"/>
		<SolidDomain name="Part14" mat="Material 2"/>
	</MeshDomains>
	<Boundary>
		<bc name="FixedDisplacement01" node_set="FixedDisplacement01" type="zero displacement">
			<x_dof>1</x_dof>
			<y_dof>0</y_dof>
			<z_dof>0</z_dof>
		</bc>
		<bc name="FixedDisplacement02" node_set="FixedDisplacement02" type="zero displacement">
			<x_dof>0</x_dof>
			<y_dof>1</y_dof>
			<z_dof>0</z_dof>
		</bc>
		<bc name="PrescribedBC52" node_set="PrescribedBC52" type="prescribed displacement">
			<dof>z</dof>
			<value lc="1">1</value>
			<relative>0</relative>
		</bc>
	</Boundary>
	<Rigid>
		<rigid_bc name="RigidFixed24" type="rigid_fixed">
			<rb>Material 2</rb>
			<Rx_dof>1</Rx_dof>
			<Ry_dof>1</Ry_dof>
			<Rz_dof>1</Rz_dof>
			<Ru_dof>1</Ru_dof>
			<Rv_dof>1</Rv_dof>
			<Rw_dof>1</Rw_dof>
		</rigid_bc>
	</Rigid>
	<Contact>
		<contact name="SlidingInterface01" surface_pair="SlidingInterface01" type="sliding-node-on-facet">
			<laugon>AUGLAG</laugon>
			<tolerance>0.1</tolerance>
			<penalty>10</penalty>
			<auto_penalty>0</auto_penalty>
			<two_pass>0</two_pass>
			<gaptol>0</gaptol>
			<fric_coeff>0</fric_coeff>
			<fric_penalty>0</fric_penalty>
			<minaug>3</minaug>
			<maxaug>10</maxaug>
			<search_tol>0.01</search_tol>
			<ktmult>0</ktmult>
			<knmult>1</knmult>
			<node_reloc>0</node_reloc>
			<seg_up>0</seg_up>
			<search_radius>0</search_radius>
			<update_penalty>0</update_penalty>
		</contact>
	</Contact>
	<LoadData>
		<load_controller id="1" name="LC1" type="loadcurve">
			<interpolate>LINEAR</interpolate>
			<extend>CONSTANT</extend>
			<points>
				<pt>0,0</pt>
				<pt>7.5,-1.5</pt>
			</points>
		</load_controller>
	</LoadData>
	<Output>
		<plotfile type="febio">
			<var type="displacement"/>
			<var type="stress"/>
		</plotfile>
	</Output>
</febio_spec>
