<?xml version="1.0" encoding="ISO-8859-1"?>
<febio_spec version="2.5">
	<Module type="solid"/>
	<Control>
		<time_steps>100</time_steps>
		<step_size>0.01</step_size>
		<max_refs>15</max_refs>
		<max_ups>0</max_ups>
		<diverge_reform>1</diverge_reform>
		<reform_each_time_step>1</reform_each_time_step>
		<dtol>0.001</dtol>
		<etol>0.01</etol>
		<rtol>0</rtol>
		<lstol>0.9</lstol>
		<min_residual>1e-020</min_residual>
		<qnmethod>0</qnmethod>
		<time_stepper>
			<dtmin>0.001</dtmin>
			<dtmax>0.01</dtmax>
			<max_retries>5</max_retries>
			<opt_iter>100</opt_iter>
		</time_stepper>
		<analysis type="static"/>
	</Control>
	<Globals>
		<Constants>
			<T>0</T>
			<R>0</R>
			<Fc>0</Fc>
		</Constants>
	</Globals>
	<Material>
		<material id="1" name="billet" type="Ogden">
			<density>1</density>
			<k>100</k>
			<c1>0.0329</c1>
			<c2>0</c2>
			<c3>0</c3>
			<c4>0</c4>
			<c5>0</c5>
			<c6>0</c6>
			<m1>6.82</m1>
			<m2>1</m2>
			<m3>1</m3>
			<m4>1</m4>
			<m5>1</m5>
			<m6>1</m6>
		</material>
		<material id="2" name="Material 2" type="rigid body">
			<density>1</density>
		</material>
	</Material>
	<Geometry>
		<Nodes name="co29">
			<node id="1"> 0.0000000e+000, 0.0000000e+000,-2.5000000e-002</node>
			<node id="2"> 2.5000000e-002, 0.0000000e+000,-2.5000000e-002</node>
			<node id="3"> 5.0000000e-002, 0.0000000e+000,-2.5000000e-002</node>
			<node id="4"> 7.5000000e-002, 0.0000000e+000,-2.5000000e-002</node>
			<node id="5"> 1.0000000e-001, 0.0000000e+000,-2.5000000e-002</node>
			<node id="6"> 1.2500000e-001, 0.0000000e+000,-2.5000000e-002</node>
			<node id="7"> 1.5000000e-001, 0.0000000e+000,-2.5000000e-002</node>
			<node id="8"> 1.7500000e-001, 0.0000000e+000,-2.5000000e-002</node>
			<node id="9"> 2.0000000e-001, 0.0000000e+000,-2.5000000e-002</node>
			<node id="10"> 2.2500000e-001, 0.0000000e+000,-2.5000000e-002</node>
			<node id="11"> 2.5000000e-001, 0.0000000e+000,-2.5000000e-002</node>
			<node id="12"> 0.0000000e+000, 2.5000000e-002,-2.5000000e-002</node>
			<node id="13"> 2.5000000e-002, 2.5000000e-002,-2.5000000e-002</node>
			<node id="14"> 5.0000000e-002, 2.5000000e-002,-2.5000000e-002</node>
			<node id="15"> 7.5000000e-002, 2.5000000e-002,-2.5000000e-002</node>
			<node id="16"> 1.0000000e-001, 2.5000000e-002,-2.5000000e-002</node>
			<node id="17"> 1.2500000e-001, 2.5000000e-002,-2.5000000e-002</node>
			<node id="18"> 1.5000000e-001, 2.5000000e-002,-2.5000000e-002</node>
			<node id="19"> 1.7500000e-001, 2.5000000e-002,-2.5000000e-002</node>
			<node id="20"> 2.0000000e-001, 2.5000000e-002,-2.5000000e-002</node>
<!-- ... 650 like lines cut -->
		</Nodes>
		<Elements type="hex8" mat="1" name="Part19">
			<elem id="1">     1,     2,    13,    12,   122,   123,   134,   133</elem>
			<elem id="2">     2,     3,    14,    13,   123,   124,   135,   134</elem>
			<elem id="3">     3,     4,    15,    14,   124,   125,   136,   135</elem>
			<elem id="4">     4,     5,    16,    15,   125,   126,   137,   136</elem>
			<elem id="5">     5,     6,    17,    16,   126,   127,   138,   137</elem>
			<elem id="6">     6,     7,    18,    17,   127,   128,   139,   138</elem>
			<elem id="7">     7,     8,    19,    18,   128,   129,   140,   139</elem>
			<elem id="8">     8,     9,    20,    19,   129,   130,   141,   140</elem>
			<elem id="9">     9,    10,    21,    20,   130,   131,   142,   141</elem>
			<elem id="10">    10,    11,    22,    21,   131,   132,   143,   142</elem>
			<elem id="11">    12,    13,    24,    23,   133,   134,   145,   144</elem>
			<elem id="12">    13,    14,    25,    24,   134,   135,   146,   145</elem>
			<elem id="13">    14,    15,    26,    25,   135,   136,   147,   146</elem>
			<elem id="14">    15,    16,    27,    26,   136,   137,   148,   147</elem>
			<elem id="15">    16,    17,    28,    27,   137,   138,   149,   148</elem>
			<elem id="16">    17,    18,    29,    28,   138,   139,   150,   149</elem>
			<elem id="17">    18,    19,    30,    29,   139,   140,   151,   150</elem>
			<elem id="18">    19,    20,    31,    30,   140,   141,   152,   151</elem>
			<elem id="19">    20,    21,    32,    31,   141,   142,   153,   152</elem>
			<elem id="20">    21,    22,    33,    32,   142,   143,   154,   153</elem>
<!-- ... 280 like lines cut -->
		</Elements>
		<Elements type="hex8" mat="2" name="Part20">
			<elem id="301">   663,   667,   669,   665,   664,   668,   670,   666</elem>
		</Elements>
		<NodeSet name="FixedDisplacement01">
			<node id="1"/>
			<node id="2"/>
			<node id="3"/>
			<node id="4"/>
			<node id="5"/>
			<node id="6"/>
			<node id="7"/>
			<node id="8"/>
			<node id="9"/>
			<node id="10"/>
			<node id="11"/>
			<node id="12"/>
			<node id="13"/>
			<node id="14"/>
			<node id="15"/>
			<node id="16"/>
			<node id="17"/>
			<node id="18"/>
			<node id="19"/>
			<node id="20"/>
<!-- ... 642 like lines cut -->
		</NodeSet>
		<NodeSet name="FixedDisplacement02">
			<node id="1"/>
			<node id="2"/>
			<node id="3"/>
			<node id="4"/>
			<node id="5"/>
			<node id="6"/>
			<node id="7"/>
			<node id="8"/>
			<node id="9"/>
			<node id="10"/>
			<node id="11"/>
			<node id="122"/>
			<node id="123"/>
			<node id="124"/>
			<node id="125"/>
			<node id="126"/>
			<node id="127"/>
			<node id="128"/>
			<node id="129"/>
			<node id="130"/>
<!-- ... 22 like lines cut -->
		</NodeSet>
		<NodeSet name="FixedDisplacement03">
			<node id="1"/>
			<node id="12"/>
			<node id="23"/>
			<node id="34"/>
			<node id="45"/>
			<node id="56"/>
			<node id="67"/>
			<node id="78"/>
			<node id="89"/>
			<node id="100"/>
			<node id="111"/>
			<node id="122"/>
			<node id="133"/>
			<node id="144"/>
			<node id="155"/>
			<node id="166"/>
			<node id="177"/>
			<node id="188"/>
			<node id="199"/>
			<node id="210"/>
<!-- ... 42 like lines cut -->
		</NodeSet>
		<Surface name="SecondarySurface01">
			<quad4 id="1">   663,   667,   668,   664</quad4>
		</Surface>
		<Surface name="PrimarySurface01">
			<quad4 id="1">   621,   622,   643,   642</quad4>
			<quad4 id="2">   622,   623,   644,   643</quad4>
			<quad4 id="3">   623,   624,   645,   644</quad4>
			<quad4 id="4">   624,   625,   646,   645</quad4>
			<quad4 id="5">   625,   626,   647,   646</quad4>
			<quad4 id="6">   626,   627,   648,   647</quad4>
			<quad4 id="7">   627,   628,   649,   648</quad4>
			<quad4 id="8">   628,   629,   650,   649</quad4>
			<quad4 id="9">   629,   630,   651,   650</quad4>
			<quad4 id="10">   632,   631,   652,   653</quad4>
			<quad4 id="11">   633,   632,   653,   654</quad4>
			<quad4 id="12">   634,   633,   654,   655</quad4>
			<quad4 id="13">   635,   634,   655,   656</quad4>
			<quad4 id="14">   636,   635,   656,   657</quad4>
			<quad4 id="15">   637,   636,   657,   658</quad4>
			<quad4 id="16">   638,   637,   658,   659</quad4>
			<quad4 id="17">   639,   638,   659,   660</quad4>
			<quad4 id="18">   640,   639,   660,   661</quad4>
			<quad4 id="19">   630,   641,   662,   651</quad4>
			<quad4 id="20">   641,   640,   661,   662</quad4>
		</Surface>
		<ElementSet name="unnamed_set01">
			<elem id="100"/>
		</ElementSet>
		<SurfacePair name="SlidingContact01">
			<master surface="SecondarySurface01"/>
			<slave surface="PrimarySurface01"/>
		</SurfacePair>
	</Geometry>
	<Boundary>
		<fix bc="z" node_set="FixedDisplacement01"/>
		<fix bc="y" node_set="FixedDisplacement02"/>
		<fix bc="x" node_set="FixedDisplacement03"/>
		<rigid_body mat="2">
			<fixed bc="x"/>
			<fixed bc="z"/>
			<fixed bc="Rx"/>
			<fixed bc="Ry"/>
			<fixed bc="Rz"/>
		</rigid_body>
		<rigid_body mat="2">
			<prescribed bc="y" lc="1">1</prescribed>
		</rigid_body>
	</Boundary>
	<Contact>
		<contact type="sliding-facet-on-facet" name="SlidingContact01" surface_pair="SlidingContact01">
			<laugon>0</laugon>
			<tolerance>0.01</tolerance>
			<penalty>10000</penalty>
			<two_pass>0</two_pass>
			<auto_penalty>0</auto_penalty>
			<fric_coeff>0</fric_coeff>
			<fric_penalty>0</fric_penalty>
			<search_tol>0.01</search_tol>
			<minaug>0</minaug>
			<maxaug>10</maxaug>
			<gaptol>0</gaptol>
			<seg_up>0</seg_up>
		</contact>
	</Contact>
	<LoadData>
		<loadcurve id="1" type="linear">
			<point>0,0</point>
			<point>1,-0.3</point>
		</loadcurve>
	</LoadData>
	<Output>
		<plotfile type="febio"/>
		<logfile>
			<element_data data="Ex" elem_set="unnamed_set01"/>
		</logfile>
	</Output>
</febio_spec>
