<?xml version="1.0" encoding="ISO-8859-1"?>
<febio_spec version="2.5">
	<Module type="solid"/>
	<Control>
		<time_steps>40</time_steps>
		<step_size>0.025</step_size>
		<max_refs>15</max_refs>
		<max_ups>10</max_ups>
		<diverge_reform>1</diverge_reform>
		<reform_each_time_step>1</reform_each_time_step>
		<dtol>0.001</dtol>
		<etol>0.01</etol>
		<rtol>0</rtol>
		<lstol>0.9</lstol>
		<min_residual>1e-020</min_residual>
		<qnmethod>0</qnmethod>
		<time_stepper>
			<dtmin>0.01</dtmin>
			<dtmax>0.05</dtmax>
			<max_retries>5</max_retries>
			<opt_iter>10</opt_iter>
		</time_stepper>
		<analysis type="static"/>
	</Control>
	<Globals>
		<Constants>
			<T>0</T>
			<R>0</R>
			<Fc>0</Fc>
		</Constants>
	</Globals>
	<Material>
		<material id="1" name="Material1" type="neo-Hookean">
			<density>1</density>
			<E>1</E>
			<v>0</v>
		</material>
		<material id="2" name="Material2" type="rigid body">
			<density>1</density>
			<center_of_mass>0,0,0</center_of_mass>
		</material>
		<material id="3" name="Material3" type="rigid body">
			<density>1</density>
			<center_of_mass>4,0,0.5</center_of_mass>
		</material>
	</Material>
	<Geometry>
		<Nodes name="co42">
			<node id="1">-5.0000000e+000,-5.0000000e+000,-1.0000000e-001</node>
			<node id="2">-5.0000000e+000,-5.0000000e+000,-1.3877788e-017</node>
			<node id="3">-5.0000000e+000, 5.0000000e+000,-1.0000000e-001</node>
			<node id="4">-5.0000000e+000, 5.0000000e+000,-1.3877788e-017</node>
			<node id="5"> 5.0000000e+000,-5.0000000e+000,-1.0000000e-001</node>
			<node id="6"> 5.0000000e+000,-5.0000000e+000,-1.3877788e-017</node>
			<node id="7"> 5.0000000e+000, 5.0000000e+000,-1.0000000e-001</node>
			<node id="8"> 5.0000000e+000, 5.0000000e+000,-1.3877788e-017</node>
			<node id="9">-4.5000000e+000,-5.0000000e-001, 0.0000000e+000</node>
			<node id="10">-4.5000000e+000,-5.0000000e-001, 2.5000000e-001</node>
			<node id="11">-4.5000000e+000,-5.0000000e-001, 5.0000000e-001</node>
			<node id="12">-4.5000000e+000,-1.6666667e-001, 0.0000000e+000</node>
			<node id="13">-4.5000000e+000,-1.6666667e-001, 2.5000000e-001</node>
			<node id="14">-4.5000000e+000,-1.6666667e-001, 5.0000000e-001</node>
			<node id="15">-4.5000000e+000, 1.6666667e-001, 0.0000000e+000</node>
			<node id="16">-4.5000000e+000, 1.6666667e-001, 2.5000000e-001</node>
			<node id="17">-4.5000000e+000, 1.6666667e-001, 5.0000000e-001</node>
			<node id="18">-4.5000000e+000, 5.0000000e-001, 0.0000000e+000</node>
			<node id="19">-4.5000000e+000, 5.0000000e-001, 2.5000000e-001</node>
			<node id="20">-4.5000000e+000, 5.0000000e-001, 5.0000000e-001</node>
<!-- ... 368 like lines cut -->
		</Nodes>
		<Elements type="hex8" mat="2" name="Part1">
			<elem id="1">     1,     5,     7,     3,     2,     6,     8,     4</elem>
		</Elements>
		<Elements type="hex8" mat="1" name="Part2">
			<elem id="2">     9,    21,    24,    12,    10,    22,    25,    13</elem>
			<elem id="3">    10,    22,    25,    13,    11,    23,    26,    14</elem>
			<elem id="4">    12,    24,    27,    15,    13,    25,    28,    16</elem>
			<elem id="5">    13,    25,    28,    16,    14,    26,    29,    17</elem>
			<elem id="6">    15,    27,    30,    18,    16,    28,    31,    19</elem>
			<elem id="7">    16,    28,    31,    19,    17,    29,    32,    20</elem>
			<elem id="8">    21,    33,    36,    24,    22,    34,    37,    25</elem>
			<elem id="9">    22,    34,    37,    25,    23,    35,    38,    26</elem>
			<elem id="10">    24,    36,    39,    27,    25,    37,    40,    28</elem>
			<elem id="11">    25,    37,    40,    28,    26,    38,    41,    29</elem>
			<elem id="12">    27,    39,    42,    30,    28,    40,    43,    31</elem>
			<elem id="13">    28,    40,    43,    31,    29,    41,    44,    32</elem>
			<elem id="14">    33,    45,    48,    36,    34,    46,    49,    37</elem>
			<elem id="15">    34,    46,    49,    37,    35,    47,    50,    38</elem>
			<elem id="16">    36,    48,    51,    39,    37,    49,    52,    40</elem>
			<elem id="17">    37,    49,    52,    40,    38,    50,    53,    41</elem>
			<elem id="18">    39,    51,    54,    42,    40,    52,    55,    43</elem>
			<elem id="19">    40,    52,    55,    43,    41,    53,    56,    44</elem>
			<elem id="20">    45,    57,    60,    48,    46,    58,    61,    49</elem>
			<elem id="21">    46,    58,    61,    49,    47,    59,    62,    50</elem>
<!-- ... 160 like lines cut -->
		</Elements>
		<Elements type="hex8" mat="3" name="Part3">
			<elem id="182">   381,   385,   387,   383,   382,   386,   388,   384</elem>
		</Elements>
		<NodeSet name="RigidNodeset 1">
			<node id="335"/>
			<node id="338"/>
			<node id="341"/>
			<node id="344"/>
			<node id="347"/>
			<node id="350"/>
			<node id="353"/>
			<node id="356"/>
			<node id="359"/>
			<node id="362"/>
			<node id="365"/>
			<node id="368"/>
			<node id="371"/>
			<node id="374"/>
			<node id="377"/>
			<node id="380"/>
		</NodeSet>
		<Surface name="SecondarySurface01">
			<quad4 id="1">     2,     6,     8,     4</quad4>
		</Surface>
		<Surface name="PrimarySurface01">
			<quad4 id="1">    18,    30,    27,    15</quad4>
			<quad4 id="2">    15,    27,    24,    12</quad4>
			<quad4 id="3">    12,    24,    21,     9</quad4>
			<quad4 id="4">    30,    42,    39,    27</quad4>
			<quad4 id="5">    27,    39,    36,    24</quad4>
			<quad4 id="6">    24,    36,    33,    21</quad4>
			<quad4 id="7">    42,    54,    51,    39</quad4>
			<quad4 id="8">    39,    51,    48,    36</quad4>
			<quad4 id="9">    36,    48,    45,    33</quad4>
			<quad4 id="10">    54,    66,    63,    51</quad4>
			<quad4 id="11">    51,    63,    60,    48</quad4>
			<quad4 id="12">    48,    60,    57,    45</quad4>
			<quad4 id="13">    66,    78,    75,    63</quad4>
			<quad4 id="14">    63,    75,    72,    60</quad4>
			<quad4 id="15">    60,    72,    69,    57</quad4>
			<quad4 id="16">    78,    90,    87,    75</quad4>
			<quad4 id="17">    75,    87,    84,    72</quad4>
			<quad4 id="18">    72,    84,    81,    69</quad4>
			<quad4 id="19">    90,   102,    99,    87</quad4>
			<quad4 id="20">    87,    99,    96,    84</quad4>
<!-- ... 70 like lines cut -->
		</Surface>
		<ElementSet name="unnamed_set01">
			<elem id="92"/>
		</ElementSet>
		<SurfacePair name="Sticky01">
			<master surface="SecondarySurface01"/>
			<slave surface="PrimarySurface01"/>
		</SurfacePair>
	</Geometry>
	<Boundary>
		<rigid name="Rigid01" rb="3" node_set="RigidNodeset 1"/>
		<rigid_body mat="2">
			<fixed bc="x"/>
			<fixed bc="y"/>
			<fixed bc="z"/>
			<fixed bc="Rx"/>
			<fixed bc="Ry"/>
			<fixed bc="Rz"/>
		</rigid_body>
		<rigid_body mat="3">
			<fixed bc="y"/>
			<fixed bc="Rx"/>
			<fixed bc="Rz"/>
		</rigid_body>
		<rigid_body mat="3">
			<prescribed bc="z" lc="1">4</prescribed>
		</rigid_body>
	</Boundary>
	<Contact>
		<contact type="sticky" name="Sticky01" surface_pair="Sticky01">
			<laugon>0</laugon>
			<tolerance>0.2</tolerance>
			<penalty>1</penalty>
			<minaug>0</minaug>
			<maxaug>10</maxaug>
			<snap_tol>0.01</snap_tol>
			<max_traction>0.01</max_traction>
		</contact>
	</Contact>
	<LoadData>
		<loadcurve id="1" type="smooth">
			<point>0,0</point>
			<point>1,1</point>
		</loadcurve>
	</LoadData>
	<Output>
		<plotfile type="febio">
			<var type="contact gap"/>
			<var type="contact pressure"/>
			<var type="contact traction"/>
			<var type="displacement"/>
			<var type="stress"/>
		</plotfile>
		<logfile>
			<element_data data="sx" elem_set="unnamed_set01"/>
		</logfile>
	</Output>
</febio_spec>
