<?xml version="1.0" encoding="ISO-8859-1"?>
<febio_spec version="2.5">
	<Module type="solid"/>
	<Control>
		<time_steps>50</time_steps>
		<step_size>0.02</step_size>
		<max_refs>15</max_refs>
		<max_ups>10</max_ups>
		<diverge_reform>1</diverge_reform>
		<reform_each_time_step>1</reform_each_time_step>
		<dtol>0.001</dtol>
		<etol>0.01</etol>
		<rtol>0</rtol>
		<lstol>0.9</lstol>
		<min_residual>1e-020</min_residual>
		<qnmethod>1</qnmethod>
		<analysis type="static"/>
		<symmetric_stiffness>0</symmetric_stiffness>
	</Control>
	<Globals>
		<Constants>
			<T>0</T>
			<R>0</R>
			<Fc>0</Fc>
		</Constants>
	</Globals>
	<Material>
		<material id="1" name="Material 1" type="neo-Hookean">
			<density>1</density>
			<E>1</E>
			<v>0</v>
		</material>
		<material id="2" name="Material 2" type="rigid body">
			<density>1</density>
		</material>
	</Material>
	<Geometry>
		<Nodes name="co45">
			<node id="1">-3.0000000e+000,-1.0000000e+000,-1.0000000e-001</node>
			<node id="2">-3.0000000e+000,-1.0000000e+000, 0.0000000e+000</node>
			<node id="3">-3.0000000e+000, 1.0000000e+000,-1.0000000e-001</node>
			<node id="4">-3.0000000e+000, 1.0000000e+000, 0.0000000e+000</node>
			<node id="5"> 3.0000000e+000,-1.0000000e+000,-1.0000000e-001</node>
			<node id="6"> 3.0000000e+000,-1.0000000e+000, 0.0000000e+000</node>
			<node id="7"> 3.0000000e+000, 1.0000000e+000,-1.0000000e-001</node>
			<node id="8"> 3.0000000e+000, 1.0000000e+000, 0.0000000e+000</node>
			<node id="9">-2.5000000e+000,-5.0000000e-001, 0.0000000e+000</node>
			<node id="10">-2.5000000e+000,-5.0000000e-001, 2.0000000e-001</node>
			<node id="11">-2.5000000e+000,-5.0000000e-001, 4.0000000e-001</node>
			<node id="12">-2.5000000e+000,-5.0000000e-001, 6.0000000e-001</node>
			<node id="13">-2.5000000e+000,-5.0000000e-001, 8.0000000e-001</node>
			<node id="14">-2.5000000e+000,-5.0000000e-001, 1.0000000e+000</node>
			<node id="15">-2.5000000e+000,-3.0000000e-001, 0.0000000e+000</node>
			<node id="16">-2.5000000e+000,-3.0000000e-001, 2.0000000e-001</node>
			<node id="17">-2.5000000e+000,-3.0000000e-001, 4.0000000e-001</node>
			<node id="18">-2.5000000e+000,-3.0000000e-001, 6.0000000e-001</node>
			<node id="19">-2.5000000e+000,-3.0000000e-001, 8.0000000e-001</node>
			<node id="20">-2.5000000e+000,-3.0000000e-001, 1.0000000e+000</node>
<!-- ... 204 like lines cut -->
		</Nodes>
		<Elements type="hex8" mat="1" name="Part9">
			<elem id="1">     9,    45,    51,    15,    10,    46,    52,    16</elem>
			<elem id="2">    10,    46,    52,    16,    11,    47,    53,    17</elem>
			<elem id="3">    11,    47,    53,    17,    12,    48,    54,    18</elem>
			<elem id="4">    12,    48,    54,    18,    13,    49,    55,    19</elem>
			<elem id="5">    13,    49,    55,    19,    14,    50,    56,    20</elem>
			<elem id="6">    15,    51,    57,    21,    16,    52,    58,    22</elem>
			<elem id="7">    16,    52,    58,    22,    17,    53,    59,    23</elem>
			<elem id="8">    17,    53,    59,    23,    18,    54,    60,    24</elem>
			<elem id="9">    18,    54,    60,    24,    19,    55,    61,    25</elem>
			<elem id="10">    19,    55,    61,    25,    20,    56,    62,    26</elem>
			<elem id="11">    21,    57,    63,    27,    22,    58,    64,    28</elem>
			<elem id="12">    22,    58,    64,    28,    23,    59,    65,    29</elem>
			<elem id="13">    23,    59,    65,    29,    24,    60,    66,    30</elem>
			<elem id="14">    24,    60,    66,    30,    25,    61,    67,    31</elem>
			<elem id="15">    25,    61,    67,    31,    26,    62,    68,    32</elem>
			<elem id="16">    27,    63,    69,    33,    28,    64,    70,    34</elem>
			<elem id="17">    28,    64,    70,    34,    29,    65,    71,    35</elem>
			<elem id="18">    29,    65,    71,    35,    30,    66,    72,    36</elem>
			<elem id="19">    30,    66,    72,    36,    31,    67,    73,    37</elem>
			<elem id="20">    31,    67,    73,    37,    32,    68,    74,    38</elem>
<!-- ... 105 like lines cut -->
		</Elements>
		<Elements type="hex8" mat="2" name="Part10">
			<elem id="126">     1,     5,     7,     3,     2,     6,     8,     4</elem>
		</Elements>
		<NodeSet name="FixedDisplacement01">
			<node id="14"/>
			<node id="20"/>
			<node id="26"/>
			<node id="32"/>
			<node id="38"/>
			<node id="44"/>
			<node id="50"/>
			<node id="56"/>
			<node id="62"/>
			<node id="68"/>
			<node id="74"/>
			<node id="80"/>
			<node id="86"/>
			<node id="92"/>
			<node id="98"/>
			<node id="104"/>
			<node id="110"/>
			<node id="116"/>
			<node id="122"/>
			<node id="128"/>
<!-- ... 16 like lines cut -->
		</NodeSet>
		<NodeSet name="PrescribedBC67">
			<node id="14"/>
			<node id="20"/>
			<node id="26"/>
			<node id="32"/>
			<node id="38"/>
			<node id="44"/>
			<node id="50"/>
			<node id="56"/>
			<node id="62"/>
			<node id="68"/>
			<node id="74"/>
			<node id="80"/>
			<node id="86"/>
			<node id="92"/>
			<node id="98"/>
			<node id="104"/>
			<node id="110"/>
			<node id="116"/>
			<node id="122"/>
			<node id="128"/>
<!-- ... 16 like lines cut -->
		</NodeSet>
		<NodeSet name="PrescribedBC68">
			<node id="14"/>
			<node id="20"/>
			<node id="26"/>
			<node id="32"/>
			<node id="38"/>
			<node id="44"/>
			<node id="50"/>
			<node id="56"/>
			<node id="62"/>
			<node id="68"/>
			<node id="74"/>
			<node id="80"/>
			<node id="86"/>
			<node id="92"/>
			<node id="98"/>
			<node id="104"/>
			<node id="110"/>
			<node id="116"/>
			<node id="122"/>
			<node id="128"/>
<!-- ... 16 like lines cut -->
		</NodeSet>
		<Surface name="SecondarySurface01">
			<quad4 id="1">     2,     6,     8,     4</quad4>
		</Surface>
		<Surface name="PrimarySurface01">
			<quad4 id="1">    15,    51,    45,     9</quad4>
			<quad4 id="2">    21,    57,    51,    15</quad4>
			<quad4 id="3">    27,    63,    57,    21</quad4>
			<quad4 id="4">    33,    69,    63,    27</quad4>
			<quad4 id="5">    39,    75,    69,    33</quad4>
			<quad4 id="6">    51,    87,    81,    45</quad4>
			<quad4 id="7">    57,    93,    87,    51</quad4>
			<quad4 id="8">    63,    99,    93,    57</quad4>
			<quad4 id="9">    69,   105,    99,    63</quad4>
			<quad4 id="10">    75,   111,   105,    69</quad4>
			<quad4 id="11">    87,   123,   117,    81</quad4>
			<quad4 id="12">    93,   129,   123,    87</quad4>
			<quad4 id="13">    99,   135,   129,    93</quad4>
			<quad4 id="14">   105,   141,   135,    99</quad4>
			<quad4 id="15">   111,   147,   141,   105</quad4>
			<quad4 id="16">   123,   159,   153,   117</quad4>
			<quad4 id="17">   129,   165,   159,   123</quad4>
			<quad4 id="18">   135,   171,   165,   129</quad4>
			<quad4 id="19">   141,   177,   171,   135</quad4>
			<quad4 id="20">   147,   183,   177,   141</quad4>
<!-- ... 5 like lines cut -->
		</Surface>
		<ElementSet name="unnamed_set01">
			<elem id="1"/>
		</ElementSet>
		<SurfacePair name="TCInterface01">
			<master surface="SecondarySurface01"/>
			<slave surface="PrimarySurface01"/>
		</SurfacePair>
	</Geometry>
	<Boundary>
		<fix bc="y" node_set="FixedDisplacement01"/>
		<prescribe bc="x" node_set="PrescribedBC67">
			<scale lc="1">1</scale>
			<relative>0</relative>
		</prescribe>
		<prescribe bc="z" node_set="PrescribedBC68">
			<scale lc="2">1</scale>
			<relative>0</relative>
		</prescribe>
		<rigid_body mat="2">
			<fixed bc="x"/>
			<fixed bc="y"/>
			<fixed bc="z"/>
			<fixed bc="Rx"/>
			<fixed bc="Ry"/>
			<fixed bc="Rz"/>
		</rigid_body>
	</Boundary>
	<Contact>
		<contact type="sliding-elastic" name="TCInterface01" surface_pair="TCInterface01">
			<laugon>1</laugon>
			<tolerance>0.02</tolerance>
			<gaptol>0</gaptol>
			<penalty>10</penalty>
			<auto_penalty>0</auto_penalty>
			<two_pass>0</two_pass>
			<search_tol>0.01</search_tol>
			<symmetric_stiffness>0</symmetric_stiffness>
			<search_radius>1</search_radius>
			<seg_up>0</seg_up>
			<tension>0</tension>
			<minaug>0</minaug>
			<maxaug>10</maxaug>
			<fric_coeff>0.02</fric_coeff>
			<smooth_aug>0</smooth_aug>
			<node_reloc>0</node_reloc>
		</contact>
	</Contact>
	<LoadData>
		<loadcurve id="1" type="linear">
			<point>0,0</point>
			<point>0.2,0</point>
			<point>1,3</point>
		</loadcurve>
		<loadcurve id="2" type="linear">
			<point>0,0</point>
			<point>0.2,-0.4</point>
			<point>1,-0.4</point>
		</loadcurve>
	</LoadData>
	<Output>
		<plotfile type="febio">
			<var type="contact area"/>
			<var type="contact force"/>
			<var type="contact gap"/>
			<var type="contact pressure"/>
			<var type="contact stick"/>
			<var type="contact traction"/>
			<var type="displacement"/>
			<var type="stress"/>
		</plotfile>
		<logfile>
			<element_data data="Ez" elem_set="unnamed_set01"/>
		</logfile>
	</Output>
</febio_spec>
