<?xml version="1.0" encoding="ISO-8859-1"?>
<!--
Multistep analysis with tiedelastic contact defined in second step. Tied contact engages with no gap between surfaces.
-->
<febio_spec version="4.0">
	<Module type="solid"/>
	<Globals>
		<Constants>
			<T>0</T>
			<R>0</R>
			<Fc>0</Fc>
		</Constants>
	</Globals>
	<Material>
		<material id="1" name="Top" type="neo-Hookean">
			<density>1</density>
			<E>100</E>
			<v>0.3</v>
		</material>
		<material id="2" name="Bottom" type="neo-Hookean">
			<density>1</density>
			<E>100</E>
			<v>0.3</v>
		</material>
		<material id="3" name="Top rigid substrate" type="rigid body">
			<density>1</density>
			<E>1</E>
			<v>0</v>
			<center_of_mass>0,0,0</center_of_mass>
		</material>
	</Material>
	<Mesh>
		<Nodes name="Object1">
			<node id="1">-0.5,-0.5,0</node>
			<node id="2">-0.5,-0.5,0.1</node>
			<node id="3">-0.5,-0.5,0.2</node>
			<node id="4">-0.5,-0.5,0.3</node>
			<node id="5">-0.5,-0.5,0.4</node>
			<node id="6">-0.5,-0.5,0.5</node>
			<node id="7">-0.5,-0.5,0.6</node>
			<node id="8">-0.5,-0.5,0.7</node>
			<node id="9">-0.5,-0.5,0.8</node>
			<node id="10">-0.5,-0.5,0.9</node>
			<node id="11">-0.5,-0.5,1</node>
			<node id="12">-0.5,-0.4,0</node>
			<node id="13">-0.5,-0.4,0.1</node>
			<node id="14">-0.5,-0.4,0.2</node>
			<node id="15">-0.5,-0.4,0.3</node>
			<node id="16">-0.5,-0.4,0.4</node>
			<node id="17">-0.5,-0.4,0.5</node>
			<node id="18">-0.5,-0.4,0.6</node>
			<node id="19">-0.5,-0.4,0.7</node>
			<node id="20">-0.5,-0.4,0.8</node>
<!-- ... 1311 like lines cut -->
		</Nodes>
		<Nodes name="Object2">
			<node id="1332">-0.5,-0.5,2</node>
			<node id="1333">-0.5,-0.5,2.1</node>
			<node id="1334">-0.5,-0.5,2.2</node>
			<node id="1335">-0.5,-0.5,2.3</node>
			<node id="1336">-0.5,-0.5,2.4</node>
			<node id="1337">-0.5,-0.5,2.5</node>
			<node id="1338">-0.5,-0.5,2.6</node>
			<node id="1339">-0.5,-0.5,2.7</node>
			<node id="1340">-0.5,-0.5,2.8</node>
			<node id="1341">-0.5,-0.5,2.9</node>
			<node id="1342">-0.5,-0.5,3</node>
			<node id="1343">-0.5,-0.4,2</node>
			<node id="1344">-0.5,-0.4,2.1</node>
			<node id="1345">-0.5,-0.4,2.2</node>
			<node id="1346">-0.5,-0.4,2.3</node>
			<node id="1347">-0.5,-0.4,2.4</node>
			<node id="1348">-0.5,-0.4,2.5</node>
			<node id="1349">-0.5,-0.4,2.6</node>
			<node id="1350">-0.5,-0.4,2.7</node>
			<node id="1351">-0.5,-0.4,2.8</node>
<!-- ... 1311 like lines cut -->
		</Nodes>
		<Elements type="hex8" name="Part1">
			<elem id="1">1,122,133,12,2,123,134,13</elem>
			<elem id="2">2,123,134,13,3,124,135,14</elem>
			<elem id="3">3,124,135,14,4,125,136,15</elem>
			<elem id="4">4,125,136,15,5,126,137,16</elem>
			<elem id="5">5,126,137,16,6,127,138,17</elem>
			<elem id="6">6,127,138,17,7,128,139,18</elem>
			<elem id="7">7,128,139,18,8,129,140,19</elem>
			<elem id="8">8,129,140,19,9,130,141,20</elem>
			<elem id="9">9,130,141,20,10,131,142,21</elem>
			<elem id="10">10,131,142,21,11,132,143,22</elem>
			<elem id="11">12,133,144,23,13,134,145,24</elem>
			<elem id="12">13,134,145,24,14,135,146,25</elem>
			<elem id="13">14,135,146,25,15,136,147,26</elem>
			<elem id="14">15,136,147,26,16,137,148,27</elem>
			<elem id="15">16,137,148,27,17,138,149,28</elem>
			<elem id="16">17,138,149,28,18,139,150,29</elem>
			<elem id="17">18,139,150,29,19,140,151,30</elem>
			<elem id="18">19,140,151,30,20,141,152,31</elem>
			<elem id="19">20,141,152,31,21,142,153,32</elem>
			<elem id="20">21,142,153,32,22,143,154,33</elem>
<!-- ... 980 like lines cut -->
		</Elements>
		<Elements type="hex8" name="Part2">
			<elem id="1001">1332,1453,1464,1343,1333,1454,1465,1344</elem>
			<elem id="1002">1333,1454,1465,1344,1334,1455,1466,1345</elem>
			<elem id="1003">1334,1455,1466,1345,1335,1456,1467,1346</elem>
			<elem id="1004">1335,1456,1467,1346,1336,1457,1468,1347</elem>
			<elem id="1005">1336,1457,1468,1347,1337,1458,1469,1348</elem>
			<elem id="1006">1337,1458,1469,1348,1338,1459,1470,1349</elem>
			<elem id="1007">1338,1459,1470,1349,1339,1460,1471,1350</elem>
			<elem id="1008">1339,1460,1471,1350,1340,1461,1472,1351</elem>
			<elem id="1009">1340,1461,1472,1351,1341,1462,1473,1352</elem>
			<elem id="1010">1341,1462,1473,1352,1342,1463,1474,1353</elem>
			<elem id="1011">1343,1464,1475,1354,1344,1465,1476,1355</elem>
			<elem id="1012">1344,1465,1476,1355,1345,1466,1477,1356</elem>
			<elem id="1013">1345,1466,1477,1356,1346,1467,1478,1357</elem>
			<elem id="1014">1346,1467,1478,1357,1347,1468,1479,1358</elem>
			<elem id="1015">1347,1468,1479,1358,1348,1469,1480,1359</elem>
			<elem id="1016">1348,1469,1480,1359,1349,1470,1481,1360</elem>
			<elem id="1017">1349,1470,1481,1360,1350,1471,1482,1361</elem>
			<elem id="1018">1350,1471,1482,1361,1351,1472,1483,1362</elem>
			<elem id="1019">1351,1472,1483,1362,1352,1473,1484,1363</elem>
			<elem id="1020">1352,1473,1484,1363,1353,1474,1485,1364</elem>
<!-- ... 980 like lines cut -->
		</Elements>
		<Surface name="FixedDisplacement1">
			<quad4 id="1">111,232,221,100</quad4>
			<quad4 id="2">100,221,210,89</quad4>
			<quad4 id="3">89,210,199,78</quad4>
			<quad4 id="4">78,199,188,67</quad4>
			<quad4 id="5">67,188,177,56</quad4>
			<quad4 id="6">56,177,166,45</quad4>
			<quad4 id="7">45,166,155,34</quad4>
			<quad4 id="8">34,155,144,23</quad4>
			<quad4 id="9">23,144,133,12</quad4>
			<quad4 id="10">12,133,122,1</quad4>
			<quad4 id="11">232,353,342,221</quad4>
			<quad4 id="12">221,342,331,210</quad4>
			<quad4 id="13">210,331,320,199</quad4>
			<quad4 id="14">199,320,309,188</quad4>
			<quad4 id="15">188,309,298,177</quad4>
			<quad4 id="16">177,298,287,166</quad4>
			<quad4 id="17">166,287,276,155</quad4>
			<quad4 id="18">155,276,265,144</quad4>
			<quad4 id="19">144,265,254,133</quad4>
			<quad4 id="20">133,254,243,122</quad4>
<!-- ... 80 like lines cut -->
		</Surface>
		<Surface name="Rigid1">
			<quad4 id="1">1342,1463,1474,1353</quad4>
			<quad4 id="2">1353,1474,1485,1364</quad4>
			<quad4 id="3">1364,1485,1496,1375</quad4>
			<quad4 id="4">1375,1496,1507,1386</quad4>
			<quad4 id="5">1386,1507,1518,1397</quad4>
			<quad4 id="6">1397,1518,1529,1408</quad4>
			<quad4 id="7">1408,1529,1540,1419</quad4>
			<quad4 id="8">1419,1540,1551,1430</quad4>
			<quad4 id="9">1430,1551,1562,1441</quad4>
			<quad4 id="10">1441,1562,1573,1452</quad4>
			<quad4 id="11">1463,1584,1595,1474</quad4>
			<quad4 id="12">1474,1595,1606,1485</quad4>
			<quad4 id="13">1485,1606,1617,1496</quad4>
			<quad4 id="14">1496,1617,1628,1507</quad4>
			<quad4 id="15">1507,1628,1639,1518</quad4>
			<quad4 id="16">1518,1639,1650,1529</quad4>
			<quad4 id="17">1529,1650,1661,1540</quad4>
			<quad4 id="18">1540,1661,1672,1551</quad4>
			<quad4 id="19">1551,1672,1683,1562</quad4>
			<quad4 id="20">1562,1683,1694,1573</quad4>
<!-- ... 80 like lines cut -->
		</Surface>
		<Surface name="TiedElastic1_primary">
			<quad4 id="1">11,132,143,22</quad4>
			<quad4 id="2">22,143,154,33</quad4>
			<quad4 id="3">33,154,165,44</quad4>
			<quad4 id="4">44,165,176,55</quad4>
			<quad4 id="5">55,176,187,66</quad4>
			<quad4 id="6">66,187,198,77</quad4>
			<quad4 id="7">77,198,209,88</quad4>
			<quad4 id="8">88,209,220,99</quad4>
			<quad4 id="9">99,220,231,110</quad4>
			<quad4 id="10">110,231,242,121</quad4>
			<quad4 id="11">132,253,264,143</quad4>
			<quad4 id="12">143,264,275,154</quad4>
			<quad4 id="13">154,275,286,165</quad4>
			<quad4 id="14">165,286,297,176</quad4>
			<quad4 id="15">176,297,308,187</quad4>
			<quad4 id="16">187,308,319,198</quad4>
			<quad4 id="17">198,319,330,209</quad4>
			<quad4 id="18">209,330,341,220</quad4>
			<quad4 id="19">220,341,352,231</quad4>
			<quad4 id="20">231,352,363,242</quad4>
<!-- ... 80 like lines cut -->
		</Surface>
		<Surface name="TiedElastic1_secondary">
			<quad4 id="1">1442,1563,1552,1431</quad4>
			<quad4 id="2">1431,1552,1541,1420</quad4>
			<quad4 id="3">1420,1541,1530,1409</quad4>
			<quad4 id="4">1409,1530,1519,1398</quad4>
			<quad4 id="5">1398,1519,1508,1387</quad4>
			<quad4 id="6">1387,1508,1497,1376</quad4>
			<quad4 id="7">1376,1497,1486,1365</quad4>
			<quad4 id="8">1365,1486,1475,1354</quad4>
			<quad4 id="9">1354,1475,1464,1343</quad4>
			<quad4 id="10">1343,1464,1453,1332</quad4>
			<quad4 id="11">1563,1684,1673,1552</quad4>
			<quad4 id="12">1552,1673,1662,1541</quad4>
			<quad4 id="13">1541,1662,1651,1530</quad4>
			<quad4 id="14">1530,1651,1640,1519</quad4>
			<quad4 id="15">1519,1640,1629,1508</quad4>
			<quad4 id="16">1508,1629,1618,1497</quad4>
			<quad4 id="17">1497,1618,1607,1486</quad4>
			<quad4 id="18">1486,1607,1596,1475</quad4>
			<quad4 id="19">1475,1596,1585,1464</quad4>
			<quad4 id="20">1464,1585,1574,1453</quad4>
<!-- ... 80 like lines cut -->
		</Surface>
		<SurfacePair name="TiedElastic1">
			<primary>TiedElastic1_primary</primary>
			<secondary>TiedElastic1_secondary</secondary>
		</SurfacePair>
	</Mesh>
	<MeshDomains>
		<SolidDomain name="Part1" mat="Bottom"/>
		<SolidDomain name="Part2" mat="Top"/>
	</MeshDomains>
	<Boundary>
		<bc name="FixedDisplacement1" node_set="@surface:FixedDisplacement1" type="zero displacement">
			<x_dof>1</x_dof>
			<y_dof>1</y_dof>
			<z_dof>1</z_dof>
		</bc>
		<bc name="Rigid1" node_set="@surface:Rigid1" type="rigid">
			<rb>Top rigid substrate</rb>
		</bc>
	</Boundary>
	<Rigid>
		<rigid_bc name="FixedRigidConstraints" type="rigid_fixed">
			<rb>Top rigid substrate</rb>
			<Rx_dof>0</Rx_dof>
			<Ry_dof>1</Ry_dof>
			<Rz_dof>0</Rz_dof>
			<Ru_dof>1</Ru_dof>
			<Rv_dof>1</Rv_dof>
			<Rw_dof>1</Rw_dof>
		</rigid_bc>
		<rigid_bc name="RigidDisplacementZ" type="rigid_displacement">
			<rb>Top rigid substrate</rb>
			<dof>z</dof>
			<value lc="1">-1</value>
			<relative>0</relative>
		</rigid_bc>
		<rigid_bc name="RigidDisplacementX" type="rigid_displacement">
			<rb>Top rigid substrate</rb>
			<dof>x</dof>
			<value lc="2">1</value>
			<relative>0</relative>
		</rigid_bc>
	</Rigid>
	<Step>
		<step id="1" name="Step1">
			<Control>
				<analysis>STATIC</analysis>
				<time_steps>10</time_steps>
				<step_size>0.1</step_size>
				<plot_zero_state>0</plot_zero_state>
				<plot_range>0,-1</plot_range>
				<plot_level>PLOT_MAJOR_ITRS</plot_level>
				<output_level>OUTPUT_MAJOR_ITRS</output_level>
				<plot_stride>1</plot_stride>
				<adaptor_re_solve>1</adaptor_re_solve>
				<time_stepper type="default">
					<max_retries>5</max_retries>
					<opt_iter>10</opt_iter>
					<dtmin>0.01</dtmin>
					<dtmax>0.1</dtmax>
					<aggressiveness>0</aggressiveness>
					<cutback>0.5</cutback>
					<dtforce>0</dtforce>
				</time_stepper>
				<solver type="solid">
					<symmetric_stiffness>symmetric</symmetric_stiffness>
					<equation_scheme>staggered</equation_scheme>
					<equation_order>default</equation_order>
					<optimize_bw>0</optimize_bw>
					<lstol>0.9</lstol>
					<lsmin>0.01</lsmin>
					<lsiter>5</lsiter>
					<max_refs>15</max_refs>
					<check_zero_diagonal>0</check_zero_diagonal>
					<zero_diagonal_tol>0</zero_diagonal_tol>
					<force_partition>0</force_partition>
					<reform_each_time_step>1</reform_each_time_step>
					<reform_augment>0</reform_augment>
					<diverge_reform>1</diverge_reform>
					<min_residual>1e-20</min_residual>
					<max_residual>0</max_residual>
					<dtol>0.001</dtol>
					<etol>0.01</etol>
					<rtol>0</rtol>
					<rhoi>0</rhoi>
					<alpha>1</alpha>
					<beta>0.25</beta>
					<gamma>0.5</gamma>
					<logSolve>0</logSolve>
					<arc_length>0</arc_length>
					<arc_length_scale>0</arc_length_scale>
					<qn_method type="Broyden">
						<max_ups>10</max_ups>
						<max_buffer_size>0</max_buffer_size>
						<cycle_buffer>1</cycle_buffer>
						<cmax>100000</cmax>
					</qn_method>
				</solver>
			</Control>
		</step>
		<step id="2" name="Step2">
			<Control>
				<analysis>STATIC</analysis>
				<time_steps>10</time_steps>
				<step_size>0.1</step_size>
				<plot_zero_state>0</plot_zero_state>
				<plot_range>0,-1</plot_range>
				<plot_level>PLOT_MAJOR_ITRS</plot_level>
				<output_level>OUTPUT_MAJOR_ITRS</output_level>
				<plot_stride>1</plot_stride>
				<adaptor_re_solve>1</adaptor_re_solve>
				<time_stepper type="default">
					<max_retries>5</max_retries>
					<opt_iter>10</opt_iter>
					<dtmin>0.01</dtmin>
					<dtmax>0.1</dtmax>
					<aggressiveness>0</aggressiveness>
					<cutback>0.5</cutback>
					<dtforce>0</dtforce>
				</time_stepper>
				<solver type="solid">
					<symmetric_stiffness>symmetric</symmetric_stiffness>
					<equation_scheme>staggered</equation_scheme>
					<equation_order>default</equation_order>
					<optimize_bw>0</optimize_bw>
					<lstol>0.9</lstol>
					<lsmin>0.01</lsmin>
					<lsiter>5</lsiter>
					<max_refs>15</max_refs>
					<check_zero_diagonal>0</check_zero_diagonal>
					<zero_diagonal_tol>0</zero_diagonal_tol>
					<force_partition>0</force_partition>
					<reform_each_time_step>1</reform_each_time_step>
					<reform_augment>0</reform_augment>
					<diverge_reform>1</diverge_reform>
					<min_residual>1e-20</min_residual>
					<max_residual>0</max_residual>
					<dtol>0.001</dtol>
					<etol>0.01</etol>
					<rtol>0</rtol>
					<rhoi>0</rhoi>
					<alpha>1</alpha>
					<beta>0.25</beta>
					<gamma>0.5</gamma>
					<logSolve>0</logSolve>
					<arc_length>0</arc_length>
					<arc_length_scale>0</arc_length_scale>
					<qn_method type="Broyden">
						<max_ups>10</max_ups>
						<max_buffer_size>0</max_buffer_size>
						<cycle_buffer>1</cycle_buffer>
						<cmax>100000</cmax>
					</qn_method>
				</solver>
			</Control>
			<Contact>
				<contact name="TiedElastic1" surface_pair="TiedElastic1" type="tied-elastic">
					<laugon>AUGLAG</laugon>
					<tolerance>0.2</tolerance>
					<gaptol>0</gaptol>
					<penalty>100</penalty>
					<auto_penalty>0</auto_penalty>
					<update_penalty>0</update_penalty>
					<two_pass>0</two_pass>
					<knmult>1</knmult>
					<search_tol>0.01</search_tol>
					<symmetric_stiffness>0</symmetric_stiffness>
					<search_radius>1</search_radius>
					<minaug>0</minaug>
					<maxaug>10</maxaug>
				</contact>
			</Contact>
		</step>
	</Step>
	<LoadData>
		<load_controller id="1" name="LC1" type="loadcurve">
			<interpolate>SMOOTH</interpolate>
			<extend>CONSTANT</extend>
			<points>
				<pt>0,0</pt>
				<pt>1,1</pt>
			</points>
		</load_controller>
		<load_controller id="2" name="LC2" type="loadcurve">
			<interpolate>LINEAR</interpolate>
			<extend>CONSTANT</extend>
			<points>
				<pt>0,0</pt>
				<pt>1,0</pt>
				<pt>2,1</pt>
			</points>
		</load_controller>
	</LoadData>
	<Output>
		<plotfile type="febio">
			<var type="displacement"/>
			<var type="relative volume"/>
			<var type="stress"/>
		</plotfile>
	</Output>
</febio_spec>
