<?xml version="1.0" encoding="ISO-8859-1"?>
<!--
2D frictional biphasic contact between biphasic square slab and rigid plane under cyclical loading and sliding
-->
<febio_spec version="3.0">
	<Module type="biphasic"/>
	<Control>
		<analysis>TRANSIENT</analysis>
		<time_steps>40</time_steps>
		<step_size>0.1</step_size>
		<solver>
			<max_refs>15</max_refs>
			<max_ups>0</max_ups>
			<diverge_reform>1</diverge_reform>
			<reform_each_time_step>1</reform_each_time_step>
			<dtol>0.001</dtol>
			<etol>0.01</etol>
			<rtol>0</rtol>
			<ptol>0.01</ptol>
			<lstol>0.9</lstol>
			<min_residual>1e-20</min_residual>
			<qnmethod>BROYDEN</qnmethod>
			<mixed_formulation>default</mixed_formulation>
			<symmetric_stiffness>0</symmetric_stiffness>
		</solver>
		<time_stepper>
			<dtmin>0.01</dtmin>
			<dtmax lc="1"></dtmax>
			<max_retries>5</max_retries>
			<opt_iter>10</opt_iter>
		</time_stepper>
	</Control>
	<Globals>
		<Constants>
			<T>0</T>
			<R>0</R>
			<Fc>0</Fc>
		</Constants>
	</Globals>
	<Material>
		<material id="1" name="Biphasic Block" type="biphasic">
			<phi0>0.2</phi0>
			<fluid_density>1</fluid_density>
			<solid type="solid mixture">
				<density>1</density>
				<solid type="neo-Hookean">
					<E>2</E>
					<v>0</v>
				</solid>
				<solid type="fiber-exp-pow">
					<alpha>1</alpha>
					<beta>2</beta>
					<ksi>5</ksi>
					<fiber type="angles">
						<theta>0</theta>
						<phi>90</phi>
					</fiber>
				</solid>
			</solid>
			<permeability type="perm-const-iso">
				<perm>0.001</perm>
			</permeability>
		</material>
		<material id="2" name="Rigid Plane" type="rigid body">
			<density>1</density>
			<center_of_mass>0,0.495,0</center_of_mass>
		</material>
	</Material>
	<Mesh>
		<Nodes name="PlaneOnBox_load_control_TC_sinusoid">
			<node id="1">-1.5,0.495,-0.1</node>
			<node id="2">-1.5,0.495,0.2</node>
			<node id="3">1.5,0.495,-0.1</node>
			<node id="4">1.5,0.495,0.2</node>
		</Nodes>
		<Nodes name="Biphasic Block">
			<node id="5">-0.5,-0.5,0</node>
			<node id="6">-0.5,-0.5,0.1</node>
			<node id="7">-0.5,-0.48387097,0</node>
			<node id="8">-0.5,-0.48387097,0.1</node>
			<node id="9">-0.5,-0.4516129,0</node>
			<node id="10">-0.5,-0.4516129,0.1</node>
			<node id="11">-0.5,-0.38709677,0</node>
			<node id="12">-0.5,-0.38709677,0.1</node>
			<node id="13">-0.5,-0.25806452,0</node>
			<node id="14">-0.5,-0.25806452,0.1</node>
			<node id="15">-0.5,-5.5511151e-17,0</node>
			<node id="16">-0.5,-5.5511151e-17,0.1</node>
			<node id="17">-0.5,0.25806452,0</node>
			<node id="18">-0.5,0.25806452,0.1</node>
			<node id="19">-0.5,0.38709677,0</node>
			<node id="20">-0.5,0.38709677,0.1</node>
			<node id="21">-0.5,0.4516129,0</node>
			<node id="22">-0.5,0.4516129,0.1</node>
			<node id="23">-0.5,0.48387097,0</node>
			<node id="24">-0.5,0.48387097,0.1</node>
<!-- ... 222 like lines cut -->
		</Nodes>
		<Elements type="quad4" name="Part1">
			<elem id="1">1,3,4,2</elem>
		</Elements>
		<Elements type="hex8" name="Part3">
			<elem id="2">5,27,29,7,6,28,30,8</elem>
			<elem id="3">7,29,31,9,8,30,32,10</elem>
			<elem id="4">9,31,33,11,10,32,34,12</elem>
			<elem id="5">11,33,35,13,12,34,36,14</elem>
			<elem id="6">13,35,37,15,14,36,38,16</elem>
			<elem id="7">15,37,39,17,16,38,40,18</elem>
			<elem id="8">17,39,41,19,18,40,42,20</elem>
			<elem id="9">19,41,43,21,20,42,44,22</elem>
			<elem id="10">21,43,45,23,22,44,46,24</elem>
			<elem id="11">23,45,47,25,24,46,48,26</elem>
			<elem id="12">27,49,51,29,28,50,52,30</elem>
			<elem id="13">29,51,53,31,30,52,54,32</elem>
			<elem id="14">31,53,55,33,32,54,56,34</elem>
			<elem id="15">33,55,57,35,34,56,58,36</elem>
			<elem id="16">35,57,59,37,36,58,60,38</elem>
			<elem id="17">37,59,61,39,38,60,62,40</elem>
			<elem id="18">39,61,63,41,40,62,64,42</elem>
			<elem id="19">41,63,65,43,42,64,66,44</elem>
			<elem id="20">43,65,67,45,44,66,68,46</elem>
			<elem id="21">45,67,69,47,46,68,70,48</elem>
<!-- ... 80 like lines cut -->
		</Elements>
		<Surface name="FixedDisplacement01">
			<quad4 id="1">5,27,28,6</quad4>
			<quad4 id="2">27,49,50,28</quad4>
			<quad4 id="3">49,71,72,50</quad4>
			<quad4 id="4">71,93,94,72</quad4>
			<quad4 id="5">93,115,116,94</quad4>
			<quad4 id="6">115,137,138,116</quad4>
			<quad4 id="7">137,159,160,138</quad4>
			<quad4 id="8">159,181,182,160</quad4>
			<quad4 id="9">181,203,204,182</quad4>
			<quad4 id="10">203,225,226,204</quad4>
		</Surface>
		<Surface name="FixedDisplacement02">
			<quad4 id="1">7,29,27,5</quad4>
			<quad4 id="2">9,31,29,7</quad4>
			<quad4 id="3">11,33,31,9</quad4>
			<quad4 id="4">13,35,33,11</quad4>
			<quad4 id="5">15,37,35,13</quad4>
			<quad4 id="6">17,39,37,15</quad4>
			<quad4 id="7">19,41,39,17</quad4>
			<quad4 id="8">21,43,41,19</quad4>
			<quad4 id="9">23,45,43,21</quad4>
			<quad4 id="10">25,47,45,23</quad4>
			<quad4 id="11">29,51,49,27</quad4>
			<quad4 id="12">31,53,51,29</quad4>
			<quad4 id="13">33,55,53,31</quad4>
			<quad4 id="14">35,57,55,33</quad4>
			<quad4 id="15">37,59,57,35</quad4>
			<quad4 id="16">39,61,59,37</quad4>
			<quad4 id="17">41,63,61,39</quad4>
			<quad4 id="18">43,65,63,41</quad4>
			<quad4 id="19">45,67,65,43</quad4>
			<quad4 id="20">47,69,67,45</quad4>
<!-- ... 180 like lines cut -->
		</Surface>
		<Surface name="FixedFluidPressure01">
			<quad4 id="1">7,5,6,8</quad4>
			<quad4 id="2">9,7,8,10</quad4>
			<quad4 id="3">11,9,10,12</quad4>
			<quad4 id="4">13,11,12,14</quad4>
			<quad4 id="5">15,13,14,16</quad4>
			<quad4 id="6">17,15,16,18</quad4>
			<quad4 id="7">19,17,18,20</quad4>
			<quad4 id="8">21,19,20,22</quad4>
			<quad4 id="9">23,21,22,24</quad4>
			<quad4 id="10">25,23,24,26</quad4>
			<quad4 id="11">225,227,228,226</quad4>
			<quad4 id="12">227,229,230,228</quad4>
			<quad4 id="13">229,231,232,230</quad4>
			<quad4 id="14">231,233,234,232</quad4>
			<quad4 id="15">233,235,236,234</quad4>
			<quad4 id="16">235,237,238,236</quad4>
			<quad4 id="17">237,239,240,238</quad4>
			<quad4 id="18">239,241,242,240</quad4>
			<quad4 id="19">241,243,244,242</quad4>
			<quad4 id="20">243,245,246,244</quad4>
		</Surface>
		<Surface name="BiphasicContact01_primary">
			<quad4 id="1">47,25,26,48</quad4>
			<quad4 id="2">69,47,48,70</quad4>
			<quad4 id="3">91,69,70,92</quad4>
			<quad4 id="4">113,91,92,114</quad4>
			<quad4 id="5">135,113,114,136</quad4>
			<quad4 id="6">157,135,136,158</quad4>
			<quad4 id="7">179,157,158,180</quad4>
			<quad4 id="8">201,179,180,202</quad4>
			<quad4 id="9">223,201,202,224</quad4>
			<quad4 id="10">245,223,224,246</quad4>
		</Surface>
		<Surface name="BiphasicContact01_secondary">
			<quad4 id="1">1,3,4,2</quad4>
		</Surface>
		<SurfacePair name="BiphasicContact01">
			<primary>BiphasicContact01_primary</primary>
			<secondary>BiphasicContact01_secondary</secondary>
		</SurfacePair>
	</Mesh>
	<MeshDomains>
		<ShellDomain name="Part1" mat="Rigid Plane">
			<shell_normal_nodal>1</shell_normal_nodal>
		</ShellDomain>
		<SolidDomain name="Part3" mat="Biphasic Block"/>
	</MeshDomains>
	<MeshData>
		<ElementData var="shell thickness" elem_set="Part1">
			<e lid="1">0.01,0.01,0.01,0.01</e>
		</ElementData>
	</MeshData>
	<Boundary>
		<bc name="FixedDisplacement01" type="fix" node_set="@surface:FixedDisplacement01">
			<dofs>x,y,z</dofs>
		</bc>
		<bc name="FixedDisplacement02" type="fix" node_set="@surface:FixedDisplacement02">
			<dofs>z</dofs>
		</bc>
		<bc name="FixedFluidPressure01" type="fix" node_set="@surface:FixedFluidPressure01">
			<dofs>p</dofs>
		</bc>
	</Boundary>
	<Rigid>
		<rigid_constraint name="RigidFixed02" type="fix">
			<rb>2</rb>
			<dofs>Rz,Ru,Rv,Rw</dofs>
		</rigid_constraint>
		<rigid_constraint name="RigidDisplacement02" type="prescribe">
			<rb>2</rb>
			<dof>Rx</dof>
			<value lc="2">1</value>
			<relative>0</relative>
		</rigid_constraint>
		<rigid_constraint name="RigidForce02" type="force">
			<rb>2</rb>
			<dof>Ry</dof>
			<value lc="3">1</value>
			<load_type>0</load_type>
		</rigid_constraint>
	</Rigid>
	<Contact>
		<contact type="sliding-biphasic" name="BiphasicContact01" surface_pair="BiphasicContact01">
			<laugon>0</laugon>
			<tolerance>0.2</tolerance>
			<gaptol>0</gaptol>
			<ptol>0</ptol>
			<two_pass>0</two_pass>
			<penalty>1</penalty>
			<pressure_penalty>1</pressure_penalty>
			<auto_penalty>1</auto_penalty>
			<fric_coeff>0.1</fric_coeff>
			<contact_frac>0.2</contact_frac>
			<smooth_fls>0</smooth_fls>
			<symmetric_stiffness>0</symmetric_stiffness>
			<search_radius>1</search_radius>
			<seg_up>0</seg_up>
			<minaug>0</minaug>
			<maxaug>10</maxaug>
			<smooth_aug>0</smooth_aug>
			<knmult>0</knmult>
			<node_reloc>0</node_reloc>
			<search_tol>0.01</search_tol>
			<update_penalty>0</update_penalty>
			<flip_primary>0</flip_primary>
			<flip_secondary>0</flip_secondary>
			<shell_bottom_primary>0</shell_bottom_primary>
			<shell_bottom_secondary>0</shell_bottom_secondary>
		</contact>
	</Contact>
	<LoadData>
		<load_controller id="1" type="loadcurve">
			<interpolate>STEP</interpolate>
			<extend>REPEAT</extend>
			<points>
				<point>0,0</point>
				<point>1,0.1</point>
				<point>2,0.1</point>
				<point>3,0.1</point>
				<point>4,0.1</point>
			</points>
		</load_controller>
		<load_controller id="2" type="loadcurve">
			<interpolate>LINEAR</interpolate>
			<extend>REPEAT</extend>
			<points>
				<point>0,0</point>
				<point>1,0.5</point>
				<point>2,0</point>
				<point>3,-0.5</point>
				<point>4,0</point>
			</points>
		</load_controller>
		<load_controller id="3" type="loadcurve">
			<interpolate>SMOOTH</interpolate>
			<extend>REPEAT</extend>
			<points>
				<point>0,-0.02</point>
				<point>0.02,-0.0201577059737</point>
				<point>0.04,-0.0206283367774</point>
				<point>0.06,-0.0214044702822</point>
				<point>0.08,-0.0224738663991</point>
				<point>0.1,-0.0238196601125</point>
				<point>0.12,-0.0254206274516</point>
				<point>0.14,-0.027251520205</point>
				<point>0.16,-0.0292834641004</point>
				<point>0.18,-0.0314844141687</point>
				<point>0.2,-0.0338196601125</point>
				<point>0.22,-0.0362523737083</point>
				<point>0.24,-0.0387441896094</point>
				<point>0.26,-0.0412558103906</point>
				<point>0.28,-0.0437476262917</point>
				<point>0.3,-0.0461803398875</point>
				<point>0.32,-0.0485155858313</point>
				<point>0.34,-0.0507165358996</point>
				<point>0.36,-0.052748479795</point>
				<point>0.38,-0.0545793725484</point>
<!-- ... 31 like lines cut -->
			</points>
		</load_controller>
	</LoadData>
	<Output>
		<plotfile type="febio">
			<var type="contact area"/>
			<var type="contact force"/>
			<var type="contact gap"/>
			<var type="contact pressure"/>
			<var type="contact traction"/>
			<var type="displacement"/>
			<var type="reaction forces"/>
			<var type="relative volume"/>
			<var type="stress"/>
			<var type="effective fluid pressure"/>
			<var type="fluid pressure"/>
			<var type="fluid flux"/>
			<var type="fluid force"/>
		</plotfile>
	</Output>
</febio_spec>
