<?xml version="1.0" encoding="ISO-8859-1"?>
<!--
2D frictional biphasic contact between elastic cylinder and biphasic slab under prescribed load and reciprocal sliding
-->
<febio_spec version="4.0">
	<Module type="biphasic"/>
	<Control>
		<analysis>TRANSIENT</analysis>
		<time_steps>50</time_steps>
		<step_size>0.02</step_size>
		<plot_zero_state>0</plot_zero_state>
		<plot_range>0,-1</plot_range>
		<plot_level>PLOT_MAJOR_ITRS</plot_level>
		<output_level>OUTPUT_MAJOR_ITRS</output_level>
		<plot_stride>1</plot_stride>
		<adaptor_re_solve>1</adaptor_re_solve>
		<time_stepper type="default">
			<max_retries>5</max_retries>
			<opt_iter>25</opt_iter>
			<dtmin>0.002</dtmin>
			<dtmax>0.02</dtmax>
			<aggressiveness>0</aggressiveness>
			<cutback>0.5</cutback>
			<dtforce>0</dtforce>
		</time_stepper>
		<solver type="biphasic">
			<symmetric_stiffness>non-symmetric</symmetric_stiffness>
			<equation_scheme>staggered</equation_scheme>
			<equation_order>default</equation_order>
			<optimize_bw>0</optimize_bw>
			<lstol>0.9</lstol>
			<lsmin>0.01</lsmin>
			<lsiter>5</lsiter>
			<max_refs>30</max_refs>
			<check_zero_diagonal>0</check_zero_diagonal>
			<zero_diagonal_tol>0</zero_diagonal_tol>
			<force_partition>0</force_partition>
			<reform_each_time_step>1</reform_each_time_step>
			<reform_augment>0</reform_augment>
			<diverge_reform>1</diverge_reform>
			<min_residual>1e-20</min_residual>
			<max_residual>0</max_residual>
			<dtol>0.001</dtol>
			<etol>0.01</etol>
			<rtol>0</rtol>
			<ptol>0.01</ptol>
			<mixed_formulation>0</mixed_formulation>
			<qn_method type="Broyden">
				<max_ups>0</max_ups>
				<max_buffer_size>0</max_buffer_size>
				<cycle_buffer>1</cycle_buffer>
				<cmax>100000</cmax>
			</qn_method>
		</solver>
	</Control>
	<Globals>
		<Constants>
			<T>0</T>
			<R>0</R>
			<Fc>0</Fc>
		</Constants>
	</Globals>
	<Material>
		<material id="1" name="Biphasic Slab" type="biphasic">
			<phi0>0.2</phi0>
			<fluid_density>1</fluid_density>
			<tau>0</tau>
			<solid type="neo-Hookean">
				<density>1</density>
				<E>1</E>
				<v>0</v>
			</solid>
			<permeability type="perm-const-iso">
				<perm>0.001</perm>
			</permeability>
		</material>
		<material id="2" name="Cylinder Substrate" type="rigid body">
			<density>1</density>
			<E>1</E>
			<v>0</v>
			<center_of_mass>0,0,0</center_of_mass>
		</material>
		<material id="3" name="Elastic Cylinder" type="neo-Hookean">
			<density>1</density>
			<E>2</E>
			<v>0.3</v>
		</material>
	</Material>
	<Mesh>
		<Nodes name="Object1">
			<node id="1">-5,-2,0</node>
			<node id="2">-5,-2,0.25</node>
			<node id="3">-5,-1.96774194,0</node>
			<node id="4">-5,-1.96774194,0.25</node>
			<node id="5">-5,-1.90322581,0</node>
			<node id="6">-5,-1.90322581,0.25</node>
			<node id="7">-5,-1.77419355,0</node>
			<node id="8">-5,-1.77419355,0.25</node>
			<node id="9">-5,-1.51612903,0</node>
			<node id="10">-5,-1.51612903,0.25</node>
			<node id="11">-5,-1,0</node>
			<node id="12">-5,-1,0.25</node>
			<node id="13">-5,-0.483870968,0</node>
			<node id="14">-5,-0.483870968,0.25</node>
			<node id="15">-5,-0.225806452,0</node>
			<node id="16">-5,-0.225806452,0.25</node>
			<node id="17">-5,-0.0967741935,0</node>
			<node id="18">-5,-0.0967741935,0.25</node>
			<node id="19">-5,-0.0322580645,0</node>
			<node id="20">-5,-0.0322580645,0.25</node>
<!-- ... 1102 like lines cut -->
		</Nodes>
		<Nodes name="Object5">
			<node id="1123">-2.99999997,0.99,0</node>
			<node id="1124">-3.40683321,0.990000022,0</node>
			<node id="1125">-3.39901603,0.910630796,0</node>
			<node id="1126">-3.37586488,0.834311683,0</node>
			<node id="1127">-3.33826946,0.763975586,0</node>
			<node id="1128">-3.28767453,0.702325479,0</node>
			<node id="1129">-3.22602443,0.651730543,0</node>
			<node id="1130">-3.15568834,0.614135111,0</node>
			<node id="1131">-3.07936923,0.590983957,0</node>
			<node id="1132">-3.00000001,0.583166764,0</node>
			<node id="1133">-2.92063078,0.590983944,0</node>
			<node id="1134">-2.84431167,0.614135086,0</node>
			<node id="1135">-2.77397557,0.651730506,0</node>
			<node id="1136">-2.71232546,0.702325433,0</node>
			<node id="1137">-2.66173052,0.763975531,0</node>
			<node id="1138">-2.62413509,0.834311623,0</node>
			<node id="1139">-2.60098393,0.910630732,0</node>
			<node id="1140">-2.59316674,0.989999956,0</node>
			<node id="1141">-3.65093315,0.990000035,0</node>
			<node id="1142">-3.63842566,0.863009273,0</node>
<!-- ... 254 like lines cut -->
		</Nodes>
		<Elements type="hex8" name="Part1">
			<elem id="1">1,23,25,3,2,24,26,4</elem>
			<elem id="2">3,25,27,5,4,26,28,6</elem>
			<elem id="3">5,27,29,7,6,28,30,8</elem>
			<elem id="4">7,29,31,9,8,30,32,10</elem>
			<elem id="5">9,31,33,11,10,32,34,12</elem>
			<elem id="6">11,33,35,13,12,34,36,14</elem>
			<elem id="7">13,35,37,15,14,36,38,16</elem>
			<elem id="8">15,37,39,17,16,38,40,18</elem>
			<elem id="9">17,39,41,19,18,40,42,20</elem>
			<elem id="10">19,41,43,21,20,42,44,22</elem>
			<elem id="11">23,45,47,25,24,46,48,26</elem>
			<elem id="12">25,47,49,27,26,48,50,28</elem>
			<elem id="13">27,49,51,29,28,50,52,30</elem>
			<elem id="14">29,51,53,31,30,52,54,32</elem>
			<elem id="15">31,53,55,33,32,54,56,34</elem>
			<elem id="16">33,55,57,35,34,56,58,36</elem>
			<elem id="17">35,57,59,37,36,58,60,38</elem>
			<elem id="18">37,59,61,39,38,60,62,40</elem>
			<elem id="19">39,61,63,41,40,62,64,42</elem>
			<elem id="20">41,63,65,43,42,64,66,44</elem>
<!-- ... 480 like lines cut -->
		</Elements>
		<Elements type="penta6" name="Part2">
			<elem id="501">1123,1124,1125,1260,1261,1262</elem>
			<elem id="502">1123,1125,1126,1260,1262,1263</elem>
			<elem id="503">1123,1126,1127,1260,1263,1264</elem>
			<elem id="504">1123,1127,1128,1260,1264,1265</elem>
			<elem id="505">1123,1128,1129,1260,1265,1266</elem>
			<elem id="506">1123,1129,1130,1260,1266,1267</elem>
			<elem id="507">1123,1130,1131,1260,1267,1268</elem>
			<elem id="508">1123,1131,1132,1260,1268,1269</elem>
			<elem id="509">1123,1132,1133,1260,1269,1270</elem>
			<elem id="510">1123,1133,1134,1260,1270,1271</elem>
			<elem id="511">1123,1134,1135,1260,1271,1272</elem>
			<elem id="512">1123,1135,1136,1260,1272,1273</elem>
			<elem id="513">1123,1136,1137,1260,1273,1274</elem>
			<elem id="514">1123,1137,1138,1260,1274,1275</elem>
			<elem id="515">1123,1138,1139,1260,1275,1276</elem>
			<elem id="516">1123,1139,1140,1260,1276,1277</elem>
		</Elements>
		<Elements type="hex8" name="Part2__2">
			<elem id="517">1124,1141,1142,1125,1261,1278,1279,1262</elem>
			<elem id="518">1125,1142,1143,1126,1262,1279,1280,1263</elem>
			<elem id="519">1126,1143,1144,1127,1263,1280,1281,1264</elem>
			<elem id="520">1127,1144,1145,1128,1264,1281,1282,1265</elem>
			<elem id="521">1128,1145,1146,1129,1265,1282,1283,1266</elem>
			<elem id="522">1129,1146,1147,1130,1266,1283,1284,1267</elem>
			<elem id="523">1130,1147,1148,1131,1267,1284,1285,1268</elem>
			<elem id="524">1131,1148,1149,1132,1268,1285,1286,1269</elem>
			<elem id="525">1132,1149,1150,1133,1269,1286,1287,1270</elem>
			<elem id="526">1133,1150,1151,1134,1270,1287,1288,1271</elem>
			<elem id="527">1134,1151,1152,1135,1271,1288,1289,1272</elem>
			<elem id="528">1135,1152,1153,1136,1272,1289,1290,1273</elem>
			<elem id="529">1136,1153,1154,1137,1273,1290,1291,1274</elem>
			<elem id="530">1137,1154,1155,1138,1274,1291,1292,1275</elem>
			<elem id="531">1138,1155,1156,1139,1275,1292,1293,1276</elem>
			<elem id="532">1139,1156,1157,1140,1276,1293,1294,1277</elem>
			<elem id="533">1141,1158,1159,1142,1278,1295,1296,1279</elem>
			<elem id="534">1142,1159,1160,1143,1279,1296,1297,1280</elem>
			<elem id="535">1143,1160,1161,1144,1280,1297,1298,1281</elem>
			<elem id="536">1144,1161,1162,1145,1281,1298,1299,1282</elem>
<!-- ... 92 like lines cut -->
		</Elements>
		<Surface name="FixedDisplacement1">
			<quad4 id="1">1,23,24,2</quad4>
			<quad4 id="2">23,45,46,24</quad4>
			<quad4 id="3">45,67,68,46</quad4>
			<quad4 id="4">67,89,90,68</quad4>
			<quad4 id="5">89,111,112,90</quad4>
			<quad4 id="6">111,133,134,112</quad4>
			<quad4 id="7">133,155,156,134</quad4>
			<quad4 id="8">155,177,178,156</quad4>
			<quad4 id="9">177,199,200,178</quad4>
			<quad4 id="10">199,221,222,200</quad4>
			<quad4 id="11">221,243,244,222</quad4>
			<quad4 id="12">243,265,266,244</quad4>
			<quad4 id="13">265,287,288,266</quad4>
			<quad4 id="14">287,309,310,288</quad4>
			<quad4 id="15">309,331,332,310</quad4>
			<quad4 id="16">331,353,354,332</quad4>
			<quad4 id="17">353,375,376,354</quad4>
			<quad4 id="18">375,397,398,376</quad4>
			<quad4 id="19">397,419,420,398</quad4>
			<quad4 id="20">419,441,442,420</quad4>
<!-- ... 30 like lines cut -->
		</Surface>
		<Surface name="FixedDisplacement2">
			<quad4 id="1">21,43,41,19</quad4>
			<quad4 id="2">19,41,39,17</quad4>
			<quad4 id="3">17,39,37,15</quad4>
			<quad4 id="4">15,37,35,13</quad4>
			<quad4 id="5">13,35,33,11</quad4>
			<quad4 id="6">11,33,31,9</quad4>
			<quad4 id="7">9,31,29,7</quad4>
			<quad4 id="8">7,29,27,5</quad4>
			<quad4 id="9">5,27,25,3</quad4>
			<quad4 id="10">3,25,23,1</quad4>
			<quad4 id="11">43,65,63,41</quad4>
			<quad4 id="12">41,63,61,39</quad4>
			<quad4 id="13">39,61,59,37</quad4>
			<quad4 id="14">37,59,57,35</quad4>
			<quad4 id="15">35,57,55,33</quad4>
			<quad4 id="16">33,55,53,31</quad4>
			<quad4 id="17">31,53,51,29</quad4>
			<quad4 id="18">29,51,49,27</quad4>
			<quad4 id="19">27,49,47,25</quad4>
			<quad4 id="20">25,47,45,23</quad4>
<!-- ... 980 like lines cut -->
			<tri3 id="1001">1123,1125,1124</tri3>
			<quad4 id="1002">1125,1142,1141,1124</quad4>
			<quad4 id="1003">1142,1159,1158,1141</quad4>
			<quad4 id="1004">1159,1176,1175,1158</quad4>
			<quad4 id="1005">1176,1193,1192,1175</quad4>
			<quad4 id="1006">1193,1210,1209,1192</quad4>
			<quad4 id="1007">1210,1227,1226,1209</quad4>
			<quad4 id="1008">1227,1244,1243,1226</quad4>
			<tri3 id="1009">1123,1126,1125</tri3>
			<quad4 id="1010">1126,1143,1142,1125</quad4>
			<quad4 id="1011">1143,1160,1159,1142</quad4>
			<quad4 id="1012">1160,1177,1176,1159</quad4>
			<quad4 id="1013">1177,1194,1193,1176</quad4>
			<quad4 id="1014">1194,1211,1210,1193</quad4>
			<quad4 id="1015">1211,1228,1227,1210</quad4>
			<quad4 id="1016">1228,1245,1244,1227</quad4>
			<tri3 id="1017">1123,1127,1126</tri3>
			<quad4 id="1018">1127,1144,1143,1126</quad4>
			<quad4 id="1019">1144,1161,1160,1143</quad4>
			<quad4 id="1020">1161,1178,1177,1160</quad4>
			<quad4 id="1021">1178,1195,1194,1177</quad4>
			<quad4 id="1022">1195,1212,1211,1194</quad4>
			<quad4 id="1023">1212,1229,1228,1211</quad4>
			<quad4 id="1024">1229,1246,1245,1228</quad4>
			<tri3 id="1025">1123,1128,1127</tri3>
			<quad4 id="1026">1128,1145,1144,1127</quad4>
			<quad4 id="1027">1145,1162,1161,1144</quad4>
			<quad4 id="1028">1162,1179,1178,1161</quad4>
			<quad4 id="1029">1179,1196,1195,1178</quad4>
			<quad4 id="1030">1196,1213,1212,1195</quad4>
			<quad4 id="1031">1213,1230,1229,1212</quad4>
			<quad4 id="1032">1230,1247,1246,1229</quad4>
			<tri3 id="1033">1123,1129,1128</tri3>
			<quad4 id="1034">1129,1146,1145,1128</quad4>
			<quad4 id="1035">1146,1163,1162,1145</quad4>
			<quad4 id="1036">1163,1180,1179,1162</quad4>
			<quad4 id="1037">1180,1197,1196,1179</quad4>
			<quad4 id="1038">1197,1214,1213,1196</quad4>
			<quad4 id="1039">1214,1231,1230,1213</quad4>
			<quad4 id="1040">1231,1248,1247,1230</quad4>
			<tri3 id="1041">1123,1130,1129</tri3>
			<quad4 id="1042">1130,1147,1146,1129</quad4>
			<quad4 id="1043">1147,1164,1163,1146</quad4>
			<quad4 id="1044">1164,1181,1180,1163</quad4>
			<quad4 id="1045">1181,1198,1197,1180</quad4>
			<quad4 id="1046">1198,1215,1214,1197</quad4>
			<quad4 id="1047">1215,1232,1231,1214</quad4>
			<quad4 id="1048">1232,1249,1248,1231</quad4>
			<tri3 id="1049">1123,1131,1130</tri3>
			<quad4 id="1050">1131,1148,1147,1130</quad4>
			<quad4 id="1051">1148,1165,1164,1147</quad4>
			<quad4 id="1052">1165,1182,1181,1164</quad4>
			<quad4 id="1053">1182,1199,1198,1181</quad4>
			<quad4 id="1054">1199,1216,1215,1198</quad4>
			<quad4 id="1055">1216,1233,1232,1215</quad4>
			<quad4 id="1056">1233,1250,1249,1232</quad4>
			<tri3 id="1057">1123,1132,1131</tri3>
			<quad4 id="1058">1132,1149,1148,1131</quad4>
			<quad4 id="1059">1149,1166,1165,1148</quad4>
			<quad4 id="1060">1166,1183,1182,1165</quad4>
			<quad4 id="1061">1183,1200,1199,1182</quad4>
			<quad4 id="1062">1200,1217,1216,1199</quad4>
			<quad4 id="1063">1217,1234,1233,1216</quad4>
			<quad4 id="1064">1234,1251,1250,1233</quad4>
			<tri3 id="1065">1123,1133,1132</tri3>
			<quad4 id="1066">1133,1150,1149,1132</quad4>
			<quad4 id="1067">1150,1167,1166,1149</quad4>
			<quad4 id="1068">1167,1184,1183,1166</quad4>
			<quad4 id="1069">1184,1201,1200,1183</quad4>
			<quad4 id="1070">1201,1218,1217,1200</quad4>
			<quad4 id="1071">1218,1235,1234,1217</quad4>
			<quad4 id="1072">1235,1252,1251,1234</quad4>
			<tri3 id="1073">1123,1134,1133</tri3>
			<quad4 id="1074">1134,1151,1150,1133</quad4>
			<quad4 id="1075">1151,1168,1167,1150</quad4>
			<quad4 id="1076">1168,1185,1184,1167</quad4>
			<quad4 id="1077">1185,1202,1201,1184</quad4>
			<quad4 id="1078">1202,1219,1218,1201</quad4>
			<quad4 id="1079">1219,1236,1235,1218</quad4>
			<quad4 id="1080">1236,1253,1252,1235</quad4>
			<tri3 id="1081">1123,1135,1134</tri3>
			<quad4 id="1082">1135,1152,1151,1134</quad4>
			<quad4 id="1083">1152,1169,1168,1151</quad4>
			<quad4 id="1084">1169,1186,1185,1168</quad4>
			<quad4 id="1085">1186,1203,1202,1185</quad4>
			<quad4 id="1086">1203,1220,1219,1202</quad4>
			<quad4 id="1087">1220,1237,1236,1219</quad4>
			<quad4 id="1088">1237,1254,1253,1236</quad4>
			<tri3 id="1089">1123,1136,1135</tri3>
			<quad4 id="1090">1136,1153,1152,1135</quad4>
			<quad4 id="1091">1153,1170,1169,1152</quad4>
			<quad4 id="1092">1170,1187,1186,1169</quad4>
			<quad4 id="1093">1187,1204,1203,1186</quad4>
			<quad4 id="1094">1204,1221,1220,1203</quad4>
			<quad4 id="1095">1221,1238,1237,1220</quad4>
			<quad4 id="1096">1238,1255,1254,1237</quad4>
			<tri3 id="1097">1123,1137,1136</tri3>
			<quad4 id="1098">1137,1154,1153,1136</quad4>
			<quad4 id="1099">1154,1171,1170,1153</quad4>
			<quad4 id="1100">1171,1188,1187,1170</quad4>
			<quad4 id="1101">1188,1205,1204,1187</quad4>
			<quad4 id="1102">1205,1222,1221,1204</quad4>
			<quad4 id="1103">1222,1239,1238,1221</quad4>
			<quad4 id="1104">1239,1256,1255,1238</quad4>
			<tri3 id="1105">1123,1138,1137</tri3>
			<quad4 id="1106">1138,1155,1154,1137</quad4>
			<quad4 id="1107">1155,1172,1171,1154</quad4>
			<quad4 id="1108">1172,1189,1188,1171</quad4>
			<quad4 id="1109">1189,1206,1205,1188</quad4>
			<quad4 id="1110">1206,1223,1222,1205</quad4>
			<quad4 id="1111">1223,1240,1239,1222</quad4>
			<quad4 id="1112">1240,1257,1256,1239</quad4>
			<tri3 id="1113">1123,1139,1138</tri3>
			<quad4 id="1114">1139,1156,1155,1138</quad4>
			<quad4 id="1115">1156,1173,1172,1155</quad4>
			<quad4 id="1116">1173,1190,1189,1172</quad4>
			<quad4 id="1117">1190,1207,1206,1189</quad4>
			<quad4 id="1118">1207,1224,1223,1206</quad4>
			<quad4 id="1119">1224,1241,1240,1223</quad4>
			<quad4 id="1120">1241,1258,1257,1240</quad4>
			<tri3 id="1121">1123,1140,1139</tri3>
			<quad4 id="1122">1140,1157,1156,1139</quad4>
			<quad4 id="1123">1157,1174,1173,1156</quad4>
			<quad4 id="1124">1174,1191,1190,1173</quad4>
			<quad4 id="1125">1191,1208,1207,1190</quad4>
			<quad4 id="1126">1208,1225,1224,1207</quad4>
			<quad4 id="1127">1225,1242,1241,1224</quad4>
			<quad4 id="1128">1242,1259,1258,1241</quad4>
			<tri3 id="1129">1260,1261,1262</tri3>
			<quad4 id="1130">1261,1278,1279,1262</quad4>
			<quad4 id="1131">1278,1295,1296,1279</quad4>
			<quad4 id="1132">1295,1312,1313,1296</quad4>
			<quad4 id="1133">1312,1329,1330,1313</quad4>
			<quad4 id="1134">1329,1346,1347,1330</quad4>
			<quad4 id="1135">1346,1363,1364,1347</quad4>
			<quad4 id="1136">1363,1380,1381,1364</quad4>
			<tri3 id="1137">1260,1262,1263</tri3>
			<quad4 id="1138">1262,1279,1280,1263</quad4>
			<quad4 id="1139">1279,1296,1297,1280</quad4>
			<quad4 id="1140">1296,1313,1314,1297</quad4>
			<quad4 id="1141">1313,1330,1331,1314</quad4>
			<quad4 id="1142">1330,1347,1348,1331</quad4>
			<quad4 id="1143">1347,1364,1365,1348</quad4>
			<quad4 id="1144">1364,1381,1382,1365</quad4>
			<tri3 id="1145">1260,1263,1264</tri3>
			<quad4 id="1146">1263,1280,1281,1264</quad4>
			<quad4 id="1147">1280,1297,1298,1281</quad4>
			<quad4 id="1148">1297,1314,1315,1298</quad4>
			<quad4 id="1149">1314,1331,1332,1315</quad4>
			<quad4 id="1150">1331,1348,1349,1332</quad4>
			<quad4 id="1151">1348,1365,1366,1349</quad4>
			<quad4 id="1152">1365,1382,1383,1366</quad4>
			<tri3 id="1153">1260,1264,1265</tri3>
			<quad4 id="1154">1264,1281,1282,1265</quad4>
			<quad4 id="1155">1281,1298,1299,1282</quad4>
			<quad4 id="1156">1298,1315,1316,1299</quad4>
			<quad4 id="1157">1315,1332,1333,1316</quad4>
			<quad4 id="1158">1332,1349,1350,1333</quad4>
			<quad4 id="1159">1349,1366,1367,1350</quad4>
			<quad4 id="1160">1366,1383,1384,1367</quad4>
			<tri3 id="1161">1260,1265,1266</tri3>
			<quad4 id="1162">1265,1282,1283,1266</quad4>
			<quad4 id="1163">1282,1299,1300,1283</quad4>
			<quad4 id="1164">1299,1316,1317,1300</quad4>
			<quad4 id="1165">1316,1333,1334,1317</quad4>
			<quad4 id="1166">1333,1350,1351,1334</quad4>
			<quad4 id="1167">1350,1367,1368,1351</quad4>
			<quad4 id="1168">1367,1384,1385,1368</quad4>
			<tri3 id="1169">1260,1266,1267</tri3>
			<quad4 id="1170">1266,1283,1284,1267</quad4>
			<quad4 id="1171">1283,1300,1301,1284</quad4>
			<quad4 id="1172">1300,1317,1318,1301</quad4>
			<quad4 id="1173">1317,1334,1335,1318</quad4>
			<quad4 id="1174">1334,1351,1352,1335</quad4>
			<quad4 id="1175">1351,1368,1369,1352</quad4>
			<quad4 id="1176">1368,1385,1386,1369</quad4>
			<tri3 id="1177">1260,1267,1268</tri3>
			<quad4 id="1178">1267,1284,1285,1268</quad4>
			<quad4 id="1179">1284,1301,1302,1285</quad4>
			<quad4 id="1180">1301,1318,1319,1302</quad4>
			<quad4 id="1181">1318,1335,1336,1319</quad4>
			<quad4 id="1182">1335,1352,1353,1336</quad4>
			<quad4 id="1183">1352,1369,1370,1353</quad4>
			<quad4 id="1184">1369,1386,1387,1370</quad4>
			<tri3 id="1185">1260,1268,1269</tri3>
			<quad4 id="1186">1268,1285,1286,1269</quad4>
			<quad4 id="1187">1285,1302,1303,1286</quad4>
			<quad4 id="1188">1302,1319,1320,1303</quad4>
			<quad4 id="1189">1319,1336,1337,1320</quad4>
			<quad4 id="1190">1336,1353,1354,1337</quad4>
			<quad4 id="1191">1353,1370,1371,1354</quad4>
			<quad4 id="1192">1370,1387,1388,1371</quad4>
			<tri3 id="1193">1260,1269,1270</tri3>
			<quad4 id="1194">1269,1286,1287,1270</quad4>
			<quad4 id="1195">1286,1303,1304,1287</quad4>
			<quad4 id="1196">1303,1320,1321,1304</quad4>
			<quad4 id="1197">1320,1337,1338,1321</quad4>
			<quad4 id="1198">1337,1354,1355,1338</quad4>
			<quad4 id="1199">1354,1371,1372,1355</quad4>
			<quad4 id="1200">1371,1388,1389,1372</quad4>
			<tri3 id="1201">1260,1270,1271</tri3>
			<quad4 id="1202">1270,1287,1288,1271</quad4>
			<quad4 id="1203">1287,1304,1305,1288</quad4>
			<quad4 id="1204">1304,1321,1322,1305</quad4>
			<quad4 id="1205">1321,1338,1339,1322</quad4>
			<quad4 id="1206">1338,1355,1356,1339</quad4>
			<quad4 id="1207">1355,1372,1373,1356</quad4>
			<quad4 id="1208">1372,1389,1390,1373</quad4>
			<tri3 id="1209">1260,1271,1272</tri3>
			<quad4 id="1210">1271,1288,1289,1272</quad4>
			<quad4 id="1211">1288,1305,1306,1289</quad4>
			<quad4 id="1212">1305,1322,1323,1306</quad4>
			<quad4 id="1213">1322,1339,1340,1323</quad4>
			<quad4 id="1214">1339,1356,1357,1340</quad4>
			<quad4 id="1215">1356,1373,1374,1357</quad4>
			<quad4 id="1216">1373,1390,1391,1374</quad4>
			<tri3 id="1217">1260,1272,1273</tri3>
			<quad4 id="1218">1272,1289,1290,1273</quad4>
			<quad4 id="1219">1289,1306,1307,1290</quad4>
			<quad4 id="1220">1306,1323,1324,1307</quad4>
			<quad4 id="1221">1323,1340,1341,1324</quad4>
			<quad4 id="1222">1340,1357,1358,1341</quad4>
			<quad4 id="1223">1357,1374,1375,1358</quad4>
			<quad4 id="1224">1374,1391,1392,1375</quad4>
			<tri3 id="1225">1260,1273,1274</tri3>
			<quad4 id="1226">1273,1290,1291,1274</quad4>
			<quad4 id="1227">1290,1307,1308,1291</quad4>
			<quad4 id="1228">1307,1324,1325,1308</quad4>
			<quad4 id="1229">1324,1341,1342,1325</quad4>
			<quad4 id="1230">1341,1358,1359,1342</quad4>
			<quad4 id="1231">1358,1375,1376,1359</quad4>
			<quad4 id="1232">1375,1392,1393,1376</quad4>
			<tri3 id="1233">1260,1274,1275</tri3>
			<quad4 id="1234">1274,1291,1292,1275</quad4>
			<quad4 id="1235">1291,1308,1309,1292</quad4>
			<quad4 id="1236">1308,1325,1326,1309</quad4>
			<quad4 id="1237">1325,1342,1343,1326</quad4>
			<quad4 id="1238">1342,1359,1360,1343</quad4>
			<quad4 id="1239">1359,1376,1377,1360</quad4>
			<quad4 id="1240">1376,1393,1394,1377</quad4>
			<tri3 id="1241">1260,1275,1276</tri3>
			<quad4 id="1242">1275,1292,1293,1276</quad4>
			<quad4 id="1243">1292,1309,1310,1293</quad4>
			<quad4 id="1244">1309,1326,1327,1310</quad4>
			<quad4 id="1245">1326,1343,1344,1327</quad4>
			<quad4 id="1246">1343,1360,1361,1344</quad4>
			<quad4 id="1247">1360,1377,1378,1361</quad4>
			<quad4 id="1248">1377,1394,1395,1378</quad4>
			<tri3 id="1249">1260,1276,1277</tri3>
			<quad4 id="1250">1276,1293,1294,1277</quad4>
			<quad4 id="1251">1293,1310,1311,1294</quad4>
			<quad4 id="1252">1310,1327,1328,1311</quad4>
			<quad4 id="1253">1327,1344,1345,1328</quad4>
			<quad4 id="1254">1344,1361,1362,1345</quad4>
			<quad4 id="1255">1361,1378,1379,1362</quad4>
			<quad4 id="1256">1378,1395,1396,1379</quad4>
		</Surface>
		<Surface name="Rigid1">
			<quad4 id="1">1123,1124,1261,1260</quad4>
			<quad4 id="2">1124,1141,1278,1261</quad4>
			<quad4 id="3">1141,1158,1295,1278</quad4>
			<quad4 id="4">1158,1175,1312,1295</quad4>
			<quad4 id="5">1175,1192,1329,1312</quad4>
			<quad4 id="6">1192,1209,1346,1329</quad4>
			<quad4 id="7">1209,1226,1363,1346</quad4>
			<quad4 id="8">1226,1243,1380,1363</quad4>
			<quad4 id="9">1123,1260,1277,1140</quad4>
			<quad4 id="10">1157,1140,1277,1294</quad4>
			<quad4 id="11">1174,1157,1294,1311</quad4>
			<quad4 id="12">1191,1174,1311,1328</quad4>
			<quad4 id="13">1208,1191,1328,1345</quad4>
			<quad4 id="14">1225,1208,1345,1362</quad4>
			<quad4 id="15">1242,1225,1362,1379</quad4>
			<quad4 id="16">1259,1242,1379,1396</quad4>
		</Surface>
		<Surface name="BiphasicContact1_primary">
			<quad4 id="1">1243,1244,1381,1380</quad4>
			<quad4 id="2">1244,1245,1382,1381</quad4>
			<quad4 id="3">1245,1246,1383,1382</quad4>
			<quad4 id="4">1246,1247,1384,1383</quad4>
			<quad4 id="5">1247,1248,1385,1384</quad4>
			<quad4 id="6">1248,1249,1386,1385</quad4>
			<quad4 id="7">1249,1250,1387,1386</quad4>
			<quad4 id="8">1250,1251,1388,1387</quad4>
			<quad4 id="9">1251,1252,1389,1388</quad4>
			<quad4 id="10">1252,1253,1390,1389</quad4>
			<quad4 id="11">1253,1254,1391,1390</quad4>
			<quad4 id="12">1254,1255,1392,1391</quad4>
			<quad4 id="13">1255,1256,1393,1392</quad4>
			<quad4 id="14">1256,1257,1394,1393</quad4>
			<quad4 id="15">1257,1258,1395,1394</quad4>
			<quad4 id="16">1258,1259,1396,1395</quad4>
		</Surface>
		<Surface name="BiphasicContact1_secondary">
			<quad4 id="1">1121,1099,1100,1122</quad4>
			<quad4 id="2">1099,1077,1078,1100</quad4>
			<quad4 id="3">1077,1055,1056,1078</quad4>
			<quad4 id="4">1055,1033,1034,1056</quad4>
			<quad4 id="5">1033,1011,1012,1034</quad4>
			<quad4 id="6">1011,989,990,1012</quad4>
			<quad4 id="7">989,967,968,990</quad4>
			<quad4 id="8">967,945,946,968</quad4>
			<quad4 id="9">945,923,924,946</quad4>
			<quad4 id="10">923,901,902,924</quad4>
			<quad4 id="11">901,879,880,902</quad4>
			<quad4 id="12">879,857,858,880</quad4>
			<quad4 id="13">857,835,836,858</quad4>
			<quad4 id="14">835,813,814,836</quad4>
			<quad4 id="15">813,791,792,814</quad4>
			<quad4 id="16">791,769,770,792</quad4>
			<quad4 id="17">769,747,748,770</quad4>
			<quad4 id="18">747,725,726,748</quad4>
			<quad4 id="19">725,703,704,726</quad4>
			<quad4 id="20">703,681,682,704</quad4>
<!-- ... 30 like lines cut -->
		</Surface>
		<SurfacePair name="BiphasicContact1">
			<primary>BiphasicContact1_primary</primary>
			<secondary>BiphasicContact1_secondary</secondary>
		</SurfacePair>
	</Mesh>
	<MeshDomains>
		<SolidDomain name="Part1" mat="Biphasic Slab"/>
		<SolidDomain name="Part2" mat="Elastic Cylinder"/>
		<SolidDomain name="Part2__2" mat="Elastic Cylinder"/>
	</MeshDomains>
	<Boundary>
		<bc name="FixedDisplacement1" node_set="@surface:FixedDisplacement1" type="zero displacement">
			<x_dof>1</x_dof>
			<y_dof>1</y_dof>
			<z_dof>0</z_dof>
		</bc>
		<bc name="FixedDisplacement2" node_set="@surface:FixedDisplacement2" type="zero displacement">
			<x_dof>0</x_dof>
			<y_dof>0</y_dof>
			<z_dof>1</z_dof>
		</bc>
		<bc name="Rigid1" node_set="@surface:Rigid1" type="rigid">
			<rb>Cylinder Substrate</rb>
		</bc>
	</Boundary>
	<Rigid>
		<rigid_bc name="Cylinder Fixed DOFs" type="rigid_fixed">
			<rb>Cylinder Substrate</rb>
			<Rx_dof>0</Rx_dof>
			<Ry_dof>0</Ry_dof>
			<Rz_dof>1</Rz_dof>
			<Ru_dof>1</Ru_dof>
			<Rv_dof>1</Rv_dof>
			<Rw_dof>1</Rw_dof>
		</rigid_bc>
		<rigid_bc name="Cylinder X-displacement" type="rigid_displacement">
			<rb>Cylinder Substrate</rb>
			<dof>x</dof>
			<value lc="1">6</value>
			<relative>0</relative>
		</rigid_bc>
		<rigid_load name="Cylinder Y-force" type="rigid_force">
			<rb>Cylinder Substrate</rb>
			<dof>Ry</dof>
			<value lc="2">-0.2</value>
			<load_type>LOAD</load_type>
			<relative>0</relative>
		</rigid_load>
	</Rigid>
	<Contact>
		<contact name="BiphasicContact1" surface_pair="BiphasicContact1" type="sliding-biphasic">
			<laugon>AUGLAG</laugon>
			<tolerance>0.2</tolerance>
			<gaptol>0</gaptol>
			<ptol>0</ptol>
			<penalty>0.2</penalty>
			<auto_penalty>1</auto_penalty>
			<update_penalty>0</update_penalty>
			<two_pass>1</two_pass>
			<knmult>1</knmult>
			<search_tol>0.01</search_tol>
			<pressure_penalty>0</pressure_penalty>
			<symmetric_stiffness>0</symmetric_stiffness>
			<search_radius>0.2</search_radius>
			<seg_up>0</seg_up>
			<minaug>0</minaug>
			<maxaug>10</maxaug>
			<node_reloc>0</node_reloc>
			<fric_coeff>0.2</fric_coeff>
			<contact_frac>0.2</contact_frac>
			<smooth_aug>0</smooth_aug>
			<smooth_fls>1</smooth_fls>
			<flip_primary>0</flip_primary>
			<flip_secondary>0</flip_secondary>
			<shell_bottom_primary>0</shell_bottom_primary>
			<shell_bottom_secondary>0</shell_bottom_secondary>
		</contact>
	</Contact>
	<LoadData>
		<load_controller id="1" name="LC1" type="loadcurve">
			<interpolate>LINEAR</interpolate>
			<extend>REPEAT</extend>
			<points>
				<pt>0,0</pt>
				<pt>1,1</pt>
				<pt>2,0</pt>
			</points>
		</load_controller>
		<load_controller id="2" name="LC2" type="loadcurve">
			<interpolate>LINEAR</interpolate>
			<extend>CONSTANT</extend>
			<points>
				<pt>0,0</pt>
				<pt>0.1,1</pt>
			</points>
		</load_controller>
	</LoadData>
	<Output>
		<plotfile type="febio">
			<var type="contact area"/>
			<var type="contact force"/>
			<var type="contact gap"/>
			<var type="contact pressure"/>
			<var type="contact stick"/>
			<var type="contact traction"/>
			<var type="displacement"/>
			<var type="nodal contact gap"/>
			<var type="nodal contact pressure"/>
			<var type="nodal contact traction"/>
			<var type="reaction forces"/>
			<var type="stress"/>
			<var type="effective fluid pressure"/>
			<var type="fluid pressure"/>
			<var type="fluid flux"/>
			<var type="solid stress"/>
		</plotfile>
	</Output>
</febio_spec>
