<?xml version="1.0" encoding="ISO-8859-1"?>
<!--
Solid remodeling of a onedimensional bar with square crosssection, fixed on one end (z=0) and 
subjected to a compressive normal traction on the other end (z=10) and a uniform shear traction on 
its lateral boundaries.  The solid material of the bar behaves as a neoHookean material with Young's 
modulus varying as a power law of the apparent solid density (a CarterHayes material).  The solid remodels
 by adjusting the apparent solid density until the specific strain energy (strain energy per mass) becomes 
 uniform.  The remodeling process is described by a chemical reaction,

[cells] + [nutrients] > [cells] + [solid matrix]

where [cells] and [nutrients] are not modeled explicitly. The [solid matrix] is modeled with a solidbound 
molecule called "solid".  The initial value of the solid apparent density is set to 1.0.  No upper bound is 
placed on this solid apparent density.  The reaction rate is dependent on the difference between the current 
and userspecified homeostatic specific strain energy according to the Huiskes model, which may produce
positive or negative rates of solid matrix deposition (growth or degradation).  Since chemical reactions 
are currently implemented only in multiphasic mixtures, the analysis necessarily includes a fluid phase in the 
porous solid, though the fluid pressure is prescribed to be zero on the boundaries.  The remodeling process 
achieves a steadystate response.
-->
<febio_spec version="4.0">
	<Module type="multiphasic"/>
	<Control>
		<analysis>STEADY-STATE</analysis>
		<time_steps>200</time_steps>
		<step_size>1</step_size>
		<plot_zero_state>0</plot_zero_state>
		<plot_range>0,-1</plot_range>
		<plot_level>PLOT_MAJOR_ITRS</plot_level>
		<output_level>OUTPUT_MAJOR_ITRS</output_level>
		<plot_stride>1</plot_stride>
		<adaptor_re_solve>1</adaptor_re_solve>
		<time_stepper type="default">
			<max_retries>5</max_retries>
			<opt_iter>10</opt_iter>
			<dtmin>0.01</dtmin>
			<dtmax>1</dtmax>
			<aggressiveness>0</aggressiveness>
			<cutback>0.5</cutback>
			<dtforce>0</dtforce>
		</time_stepper>
		<solver type="multiphasic">
			<symmetric_stiffness>non-symmetric</symmetric_stiffness>
			<equation_scheme>staggered</equation_scheme>
			<equation_order>default</equation_order>
			<optimize_bw>0</optimize_bw>
			<lstol>0.9</lstol>
			<lsmin>0.01</lsmin>
			<lsiter>5</lsiter>
			<max_refs>15</max_refs>
			<check_zero_diagonal>0</check_zero_diagonal>
			<zero_diagonal_tol>0</zero_diagonal_tol>
			<force_partition>0</force_partition>
			<reform_each_time_step>1</reform_each_time_step>
			<reform_augment>0</reform_augment>
			<diverge_reform>1</diverge_reform>
			<min_residual>1e-20</min_residual>
			<max_residual>0</max_residual>
			<dtol>0.01</dtol>
			<etol>0.01</etol>
			<rtol>0</rtol>
			<ptol>0.01</ptol>
			<ctol>0.01</ctol>
			<force_positive_concentrations>1</force_positive_concentrations>
			<qn_method type="Broyden">
				<max_ups>0</max_ups>
				<max_buffer_size>0</max_buffer_size>
				<cycle_buffer>1</cycle_buffer>
				<cmax>100000</cmax>
			</qn_method>
		</solver>
	</Control>
	<Globals>
		<Constants>
			<T>293</T>
			<R>8.314e-06</R>
			<Fc>9.65e-05</Fc>
		</Constants>
		<Solutes>
			<solute id="1" name="solute">
				<charge_number>0</charge_number>
				<molar_mass>1</molar_mass>
				<density>1</density>
			</solute>
		</Solutes>
		<SolidBoundMolecules>
			<solid_bound id="1" name="solid">
				<charge_number>0</charge_number>
				<molar_mass>1</molar_mass>
				<density>1000</density>
			</solid_bound>
		</SolidBoundMolecules>
	</Globals>
	<Material>
		<material id="1" name="solid matrix" type="multiphasic">
			<phi0>0</phi0>
			<fluid_density>0</fluid_density>
			<penalty>1</penalty>
			<fixed_charge_density>0</fixed_charge_density>
			<solid type="Carter-Hayes">
				<density>1</density>
				<E0>10000</E0>
				<rho0>1</rho0>
				<gamma>2</gamma>
				<v>0</v>
				<sbm>1</sbm>
			</solid>
			<permeability type="perm-const-iso">
				<perm>1</perm>
			</permeability>
			<osmotic_coefficient type="osm-coef-const">
				<osmcoef>1</osmcoef>
			</osmotic_coefficient>
			<solid_bound sbm="solid">
				<rho0>1</rho0>
				<rhomin>0</rhomin>
				<rhomax>0</rhomax>
			</solid_bound>
			<reaction type="mass-action-forward">
				<Vbar>0</Vbar>
				<forward_rate type="Huiskes reaction rate">
					<B>1</B>
					<psi0>0.01</psi0>
				</forward_rate>
				<vP species="solid">
					<vP>1</vP>
				</vP>
			</reaction>
		</material>
	</Material>
	<Mesh>
		<Nodes name="Object01">
			<node id="1">-0.5,-0.5,0</node>
			<node id="2">-0.5,-0.5,0.1</node>
			<node id="3">-0.5,-0.5,0.2</node>
			<node id="4">-0.5,-0.5,0.3</node>
			<node id="5">-0.5,-0.5,0.4</node>
			<node id="6">-0.5,-0.5,0.5</node>
			<node id="7">-0.5,-0.5,0.6</node>
			<node id="8">-0.5,-0.5,0.7</node>
			<node id="9">-0.5,-0.5,0.8</node>
			<node id="10">-0.5,-0.5,0.9</node>
			<node id="11">-0.5,-0.5,1</node>
			<node id="12">-0.5,-0.5,1.1</node>
			<node id="13">-0.5,-0.5,1.2</node>
			<node id="14">-0.5,-0.5,1.3</node>
			<node id="15">-0.5,-0.5,1.4</node>
			<node id="16">-0.5,-0.5,1.5</node>
			<node id="17">-0.5,-0.5,1.6</node>
			<node id="18">-0.5,-0.5,1.7</node>
			<node id="19">-0.5,-0.5,1.8</node>
			<node id="20">-0.5,-0.5,1.9</node>
<!-- ... 384 like lines cut -->
		</Nodes>
		<Elements type="hex8" name="Part1">
			<elem id="1">1,203,304,102,2,204,305,103</elem>
			<elem id="2">2,204,305,103,3,205,306,104</elem>
			<elem id="3">3,205,306,104,4,206,307,105</elem>
			<elem id="4">4,206,307,105,5,207,308,106</elem>
			<elem id="5">5,207,308,106,6,208,309,107</elem>
			<elem id="6">6,208,309,107,7,209,310,108</elem>
			<elem id="7">7,209,310,108,8,210,311,109</elem>
			<elem id="8">8,210,311,109,9,211,312,110</elem>
			<elem id="9">9,211,312,110,10,212,313,111</elem>
			<elem id="10">10,212,313,111,11,213,314,112</elem>
			<elem id="11">11,213,314,112,12,214,315,113</elem>
			<elem id="12">12,214,315,113,13,215,316,114</elem>
			<elem id="13">13,215,316,114,14,216,317,115</elem>
			<elem id="14">14,216,317,115,15,217,318,116</elem>
			<elem id="15">15,217,318,116,16,218,319,117</elem>
			<elem id="16">16,218,319,117,17,219,320,118</elem>
			<elem id="17">17,219,320,118,18,220,321,119</elem>
			<elem id="18">18,220,321,119,19,221,322,120</elem>
			<elem id="19">19,221,322,120,20,222,323,121</elem>
			<elem id="20">20,222,323,121,21,223,324,122</elem>
<!-- ... 80 like lines cut -->
		</Elements>
		<NodeSet name="FixedDisplacement01">
			1, 2, 3, 4, 5, 6, 7, 8,
			9, 10, 11, 12, 13, 14, 15, 16,
			17, 18, 19, 20, 21, 22, 23, 24,
			25, 26, 27, 28, 29, 30, 31, 32,
			33, 34, 35, 36, 37, 38, 39, 40,
			41, 42, 43, 44, 45, 46, 47, 48,
			49, 50, 51, 52, 53, 54, 55, 56,
			57, 58, 59, 60, 61, 62, 63, 64,
			65, 66, 67, 68, 69, 70, 71, 72,
			73, 74, 75, 76, 77, 78, 79, 80,
			81, 82, 83, 84, 85, 86, 87, 88,
			89, 90, 91, 92, 93, 94, 95, 96,
			97, 98, 99, 100, 101, 102, 103, 104,
			105, 106, 107, 108, 109, 110, 111, 112,
			113, 114, 115, 116, 117, 118, 119, 120,
			121, 122, 123, 124, 125, 126, 127, 128,
			129, 130, 131, 132, 133, 134, 135, 136,
			137, 138, 139, 140, 141, 142, 143, 144,
			145, 146, 147, 148, 149, 150, 151, 152,
			153, 154, 155, 156, 157, 158, 159, 160,
<!-- ... 6 like lines cut -->
		</NodeSet>
		<NodeSet name="FixedDisplacement02">
			1, 2, 3, 4, 5, 6, 7, 8,
			9, 10, 11, 12, 13, 14, 15, 16,
			17, 18, 19, 20, 21, 22, 23, 24,
			25, 26, 27, 28, 29, 30, 31, 32,
			33, 34, 35, 36, 37, 38, 39, 40,
			41, 42, 43, 44, 45, 46, 47, 48,
			49, 50, 51, 52, 53, 54, 55, 56,
			57, 58, 59, 60, 61, 62, 63, 64,
			65, 66, 67, 68, 69, 70, 71, 72,
			73, 74, 75, 76, 77, 78, 79, 80,
			81, 82, 83, 84, 85, 86, 87, 88,
			89, 90, 91, 92, 93, 94, 95, 96,
			97, 98, 99, 100, 101, 203, 204, 205,
			206, 207, 208, 209, 210, 211, 212, 213,
			214, 215, 216, 217, 218, 219, 220, 221,
			222, 223, 224, 225, 226, 227, 228, 229,
			230, 231, 232, 233, 234, 235, 236, 237,
			238, 239, 240, 241, 242, 243, 244, 245,
			246, 247, 248, 249, 250, 251, 252, 253,
			254, 255, 256, 257, 258, 259, 260, 261,
<!-- ... 6 like lines cut -->
		</NodeSet>
		<NodeSet name="FixedDisplacement03">
			1, 102, 203, 304
		</NodeSet>
		<NodeSet name="FixedFluidPressure01">
			1, 2, 3, 4, 5, 6, 7, 8,
			9, 10, 11, 12, 13, 14, 15, 16,
			17, 18, 19, 20, 21, 22, 23, 24,
			25, 26, 27, 28, 29, 30, 31, 32,
			33, 34, 35, 36, 37, 38, 39, 40,
			41, 42, 43, 44, 45, 46, 47, 48,
			49, 50, 51, 52, 53, 54, 55, 56,
			57, 58, 59, 60, 61, 62, 63, 64,
			65, 66, 67, 68, 69, 70, 71, 72,
			73, 74, 75, 76, 77, 78, 79, 80,
			81, 82, 83, 84, 85, 86, 87, 88,
			89, 90, 91, 92, 93, 94, 95, 96,
			97, 98, 99, 100, 101, 102, 103, 104,
			105, 106, 107, 108, 109, 110, 111, 112,
			113, 114, 115, 116, 117, 118, 119, 120,
			121, 122, 123, 124, 125, 126, 127, 128,
			129, 130, 131, 132, 133, 134, 135, 136,
			137, 138, 139, 140, 141, 142, 143, 144,
			145, 146, 147, 148, 149, 150, 151, 152,
			153, 154, 155, 156, 157, 158, 159, 160,
<!-- ... 31 like lines cut -->
		</NodeSet>
		<Surface name="TractionLoad1">
			<quad4 id="1">101,303,404,202</quad4>
		</Surface>
		<Surface name="surface01">
			<quad4 id="1">1,203,204,2</quad4>
			<quad4 id="2">2,204,205,3</quad4>
			<quad4 id="3">3,205,206,4</quad4>
			<quad4 id="4">4,206,207,5</quad4>
			<quad4 id="5">5,207,208,6</quad4>
			<quad4 id="6">6,208,209,7</quad4>
			<quad4 id="7">7,209,210,8</quad4>
			<quad4 id="8">8,210,211,9</quad4>
			<quad4 id="9">9,211,212,10</quad4>
			<quad4 id="10">10,212,213,11</quad4>
			<quad4 id="11">11,213,214,12</quad4>
			<quad4 id="12">12,214,215,13</quad4>
			<quad4 id="13">13,215,216,14</quad4>
			<quad4 id="14">14,216,217,15</quad4>
			<quad4 id="15">15,217,218,16</quad4>
			<quad4 id="16">16,218,219,17</quad4>
			<quad4 id="17">17,219,220,18</quad4>
			<quad4 id="18">18,220,221,19</quad4>
			<quad4 id="19">19,221,222,20</quad4>
			<quad4 id="20">20,222,223,21</quad4>
<!-- ... 380 like lines cut -->
		</Surface>
		<ElementSet name="unnamed_set01">
			58
		</ElementSet>
	</Mesh>
	<MeshDomains>
		<SolidDomain name="Part1" mat="solid matrix"/>
	</MeshDomains>
	<Boundary>
		<bc name="FixedDisplacement01" node_set="FixedDisplacement01" type="zero displacement">
			<x_dof>1</x_dof>
			<y_dof>0</y_dof>
			<z_dof>0</z_dof>
		</bc>
		<bc name="FixedDisplacement02" node_set="FixedDisplacement02" type="zero displacement">
			<x_dof>0</x_dof>
			<y_dof>1</y_dof>
			<z_dof>0</z_dof>
		</bc>
		<bc name="FixedDisplacement03" node_set="FixedDisplacement03" type="zero displacement">
			<x_dof>0</x_dof>
			<y_dof>0</y_dof>
			<z_dof>1</z_dof>
		</bc>
		<bc name="FixedFluidPressure01" node_set="FixedFluidPressure01" type="zero fluid pressure"/>
	</Boundary>
	<Loads>
		<surface_load name="TractionLoad1" surface="TractionLoad1" type="traction">
			<scale lc="1">1</scale>
			<traction>0,0,-1</traction>
			<shell_bottom>0</shell_bottom>
			<linear>0</linear>
		</surface_load>
		<surface_load name="TractionLoad2" surface="surface01" type="traction">
			<scale lc="2">-0.25</scale>
			<traction>0,0,1</traction>
			<shell_bottom>0</shell_bottom>
			<linear>0</linear>
		</surface_load>
	</Loads>
	<LoadData>
		<load_controller id="1" name="LC1" type="loadcurve">
			<interpolate>STEP</interpolate>
			<extend>CONSTANT</extend>
			<points>
				<pt>0,0</pt>
				<pt>1,10</pt>
			</points>
		</load_controller>
		<load_controller id="2" name="LC2" type="loadcurve">
			<interpolate>STEP</interpolate>
			<extend>CONSTANT</extend>
			<points>
				<pt>0,0</pt>
				<pt>1,1</pt>
			</points>
		</load_controller>
	</LoadData>
	<Output>
		<plotfile type="febio">
			<var type="density"/>
			<var type="displacement"/>
			<var type="specific strain energy"/>
			<var type="strain energy density"/>
			<var type="stress"/>
			<var type="effective fluid pressure"/>
			<var type="fluid pressure"/>
			<var type="fluid flux"/>
			<var type="sbm referential apparent density"/>
			<var type="sbm concentration"/>
		</plotfile>
	</Output>
</febio_spec>
