<?xml version="1.0" encoding="ISO-8859-1"?>
<febio_spec version="2.5">
	<Module type="solid"/>
	<Control>
		<time_steps>84</time_steps>
		<step_size>0.2</step_size>
		<max_refs>15</max_refs>
		<max_ups>10</max_ups>
		<diverge_reform>1</diverge_reform>
		<reform_each_time_step>1</reform_each_time_step>
		<dtol>0.001</dtol>
		<etol>0.01</etol>
		<rtol>0</rtol>
		<lstol>0.9</lstol>
		<min_residual>1e-020</min_residual>
		<qnmethod>0</qnmethod>
		<time_stepper>
			<dtmin>0.01</dtmin>
			<dtmax>0.1</dtmax>
			<max_retries>5</max_retries>
			<opt_iter>10</opt_iter>
		</time_stepper>
		<analysis type="dynamic"/>
		<alpha>1</alpha>
		<beta>0.25</beta>
		<gamma>0.5</gamma>
	</Control>
	<Globals>
		<Constants>
			<T>0</T>
			<R>0</R>
			<Fc>0</Fc>
		</Constants>
	</Globals>
	<Material>
		<material id="1" name="Material 2" type="neo-Hookean">
			<density>1</density>
			<E>10000</E>
			<v>0</v>
		</material>
	</Material>
	<Geometry>
		<Nodes name="dy02">
			<node id="1">-1.0000000e+001,-1.0000000e+000, 0.0000000e+000</node>
			<node id="2">-1.0000000e+001,-1.0000000e+000, 5.0000000e-001</node>
			<node id="3">-1.0000000e+001,-1.0000000e+000, 1.0000000e+000</node>
			<node id="4">-1.0000000e+001, 0.0000000e+000, 0.0000000e+000</node>
			<node id="5">-1.0000000e+001, 0.0000000e+000, 5.0000000e-001</node>
			<node id="6">-1.0000000e+001, 0.0000000e+000, 1.0000000e+000</node>
			<node id="7">-1.0000000e+001, 1.0000000e+000, 0.0000000e+000</node>
			<node id="8">-1.0000000e+001, 1.0000000e+000, 5.0000000e-001</node>
			<node id="9">-1.0000000e+001, 1.0000000e+000, 1.0000000e+000</node>
			<node id="10">-9.0000000e+000,-1.0000000e+000, 0.0000000e+000</node>
			<node id="11">-9.0000000e+000,-1.0000000e+000, 5.0000000e-001</node>
			<node id="12">-9.0000000e+000,-1.0000000e+000, 1.0000000e+000</node>
			<node id="13">-9.0000000e+000, 0.0000000e+000, 0.0000000e+000</node>
			<node id="14">-9.0000000e+000, 0.0000000e+000, 5.0000000e-001</node>
			<node id="15">-9.0000000e+000, 0.0000000e+000, 1.0000000e+000</node>
			<node id="16">-9.0000000e+000, 1.0000000e+000, 0.0000000e+000</node>
			<node id="17">-9.0000000e+000, 1.0000000e+000, 5.0000000e-001</node>
			<node id="18">-9.0000000e+000, 1.0000000e+000, 1.0000000e+000</node>
			<node id="19">-8.0000000e+000,-1.0000000e+000, 0.0000000e+000</node>
			<node id="20">-8.0000000e+000,-1.0000000e+000, 5.0000000e-001</node>
<!-- ... 169 like lines cut -->
		</Nodes>
		<Elements type="hex8" mat="1" name="Part5">
			<elem id="1">     1,    10,    13,     4,     2,    11,    14,     5</elem>
			<elem id="2">     2,    11,    14,     5,     3,    12,    15,     6</elem>
			<elem id="3">     4,    13,    16,     7,     5,    14,    17,     8</elem>
			<elem id="4">     5,    14,    17,     8,     6,    15,    18,     9</elem>
			<elem id="5">    10,    19,    22,    13,    11,    20,    23,    14</elem>
			<elem id="6">    11,    20,    23,    14,    12,    21,    24,    15</elem>
			<elem id="7">    13,    22,    25,    16,    14,    23,    26,    17</elem>
			<elem id="8">    14,    23,    26,    17,    15,    24,    27,    18</elem>
			<elem id="9">    19,    28,    31,    22,    20,    29,    32,    23</elem>
			<elem id="10">    20,    29,    32,    23,    21,    30,    33,    24</elem>
			<elem id="11">    22,    31,    34,    25,    23,    32,    35,    26</elem>
			<elem id="12">    23,    32,    35,    26,    24,    33,    36,    27</elem>
			<elem id="13">    28,    37,    40,    31,    29,    38,    41,    32</elem>
			<elem id="14">    29,    38,    41,    32,    30,    39,    42,    33</elem>
			<elem id="15">    31,    40,    43,    34,    32,    41,    44,    35</elem>
			<elem id="16">    32,    41,    44,    35,    33,    42,    45,    36</elem>
			<elem id="17">    37,    46,    49,    40,    38,    47,    50,    41</elem>
			<elem id="18">    38,    47,    50,    41,    39,    48,    51,    42</elem>
			<elem id="19">    40,    49,    52,    43,    41,    50,    53,    44</elem>
			<elem id="20">    41,    50,    53,    44,    42,    51,    54,    45</elem>
<!-- ... 60 like lines cut -->
		</Elements>
		<NodeSet name="FixedDisplacement01">
			<node id="1"/>
			<node id="2"/>
			<node id="3"/>
			<node id="4"/>
			<node id="5"/>
			<node id="6"/>
			<node id="7"/>
			<node id="8"/>
			<node id="9"/>
		</NodeSet>
		<NodeSet name="FixedDisplacement02">
			<node id="1"/>
			<node id="2"/>
			<node id="3"/>
			<node id="4"/>
			<node id="5"/>
			<node id="6"/>
			<node id="7"/>
			<node id="8"/>
			<node id="9"/>
		</NodeSet>
		<NodeSet name="FixedDisplacement03">
			<node id="1"/>
			<node id="2"/>
			<node id="3"/>
			<node id="4"/>
			<node id="5"/>
			<node id="6"/>
			<node id="7"/>
			<node id="8"/>
			<node id="9"/>
		</NodeSet>
		<ElementSet name="unnamed_set01">
			<elem id="26"/>
		</ElementSet>
	</Geometry>
	<Boundary>
		<fix bc="z" node_set="FixedDisplacement01"/>
		<fix bc="y" node_set="FixedDisplacement02"/>
		<fix bc="x" node_set="FixedDisplacement03"/>
	</Boundary>
	<Loads>
		<body_load type="const">
			<x lc="1">0</x>
			<y lc="2">0</y>
			<z lc="3">1</z>
		</body_load>
	</Loads>
	<LoadData>
		<loadcurve id="1" type="smooth">
			<point>0,0</point>
			<point>1,1</point>
		</loadcurve>
		<loadcurve id="2" type="smooth">
			<point>0,0</point>
			<point>1,1</point>
		</loadcurve>
		<loadcurve id="3" type="linear">
			<point>0,1</point>
			<point>1,1</point>
		</loadcurve>
	</LoadData>
	<Output>
		<plotfile type="febio"/>
		<logfile>
			<element_data data="sz" elem_set="unnamed_set01"/>
		</logfile>
	</Output>
</febio_spec>
