<?xml version="1.0" encoding="ISO-8859-1"?>
<!--
 This file was created with FEBio Studio version 1.0.0 
 Explicit fluid solver for lid-driven cavity flow
-->
<febio_spec version="4.0">
	<Module type="fluid"/>
	<Control>
		<analysis>DYNAMIC</analysis>
		<time_steps>2000</time_steps>
		<step_size>0.02</step_size>
		<plot_zero_state>0</plot_zero_state>
		<plot_range>0,-1</plot_range>
		<plot_level>PLOT_MAJOR_ITRS</plot_level>
		<output_level>OUTPUT_MAJOR_ITRS</output_level>
		<plot_stride>50</plot_stride>
		<output_stride>50</output_stride>
		<adaptor_re_solve>1</adaptor_re_solve>
		<time_stepper type="default">
			<max_retries>5</max_retries>
			<opt_iter>50</opt_iter>
			<dtmin>0</dtmin>
			<dtmax>0.02</dtmax>
			<aggressiveness>1</aggressiveness>
			<cutback>0.1</cutback>
			<dtforce>0</dtforce>
		</time_stepper>
		<solver type="explicit-fluid">
			<symmetric_stiffness>preferred</symmetric_stiffness>
			<equation_scheme>staggered</equation_scheme>
			<equation_order>default</equation_order>
			<optimize_bw>0</optimize_bw>
			<lstol>0.9</lstol>
			<lsmin>0.01</lsmin>
			<lsiter>5</lsiter>
			<ls_check_jacobians>0</ls_check_jacobians>
			<max_refs>5</max_refs>
			<check_zero_diagonal>0</check_zero_diagonal>
			<zero_diagonal_tol>0</zero_diagonal_tol>
			<force_partition>0</force_partition>
			<reform_each_time_step>0</reform_each_time_step>
			<reform_augment>0</reform_augment>
			<diverge_reform>0</diverge_reform>
			<min_residual>1e-20</min_residual>
			<max_residual>1e+20</max_residual>
			<vtol>0.001</vtol>
			<ftol>0.001</ftol>
			<rhoi>-1</rhoi>
			<etol>0.01</etol>
			<rtol>0.001</rtol>
			<predictor>0</predictor>
			<min_volume_ratio>0</min_volume_ratio>
		</solver>
	</Control>
	<Globals>
		<Constants>
			<T>0</T>
			<P>0</P>
			<R>0</R>
			<Fc>0</Fc>
		</Constants>
	</Globals>
	<Material>
		<material id="1" name="Material1" type="fluid">
			<density>0.1</density>
			<k>1</k>
			<viscous type="Newtonian fluid">
				<kappa>0</kappa>
				<mu>0.00025</mu>
			</viscous>
		</material>
	</Material>
	<Mesh>
		<Nodes name="Object2">
			<node id="1">-0.5,-0.5,0</node>
			<node id="2">0.5,-0.5,0</node>
			<node id="3">0.5,0.5,0</node>
			<node id="4">-0.5,0.5,0</node>
			<node id="5">-0.5,-0.5,0.1</node>
			<node id="6">0.5,-0.5,0.1</node>
			<node id="7">0.5,0.5,0.1</node>
			<node id="8">-0.5,0.5,0.1</node>
			<node id="9">-0.46875,-0.5,0</node>
			<node id="10">-0.4375,-0.5,0</node>
			<node id="11">-0.40625,-0.5,0</node>
			<node id="12">-0.375,-0.5,0</node>
			<node id="13">-0.34375,-0.5,0</node>
			<node id="14">-0.3125,-0.5,0</node>
			<node id="15">-0.28125,-0.5,0</node>
			<node id="16">-0.25,-0.5,0</node>
			<node id="17">-0.21875,-0.5,0</node>
			<node id="18">-0.1875,-0.5,0</node>
			<node id="19">-0.15625,-0.5,0</node>
			<node id="20">-0.125,-0.5,0</node>
<!-- ... 2158 like lines cut -->
		</Nodes>
		<Elements type="hex8" name="Part2">
			<elem id="1">1,9,1187,225,5,70,1218,226</elem>
			<elem id="2">9,10,1188,1187,70,69,1219,1218</elem>
			<elem id="3">10,11,1189,1188,69,68,1220,1219</elem>
			<elem id="4">11,12,1190,1189,68,67,1221,1220</elem>
			<elem id="5">12,13,1191,1190,67,66,1222,1221</elem>
			<elem id="6">13,14,1192,1191,66,65,1223,1222</elem>
			<elem id="7">14,15,1193,1192,65,64,1224,1223</elem>
			<elem id="8">15,16,1194,1193,64,63,1225,1224</elem>
			<elem id="9">16,17,1195,1194,63,62,1226,1225</elem>
			<elem id="10">17,18,1196,1195,62,61,1227,1226</elem>
			<elem id="11">18,19,1197,1196,61,60,1228,1227</elem>
			<elem id="12">19,20,1198,1197,60,59,1229,1228</elem>
			<elem id="13">20,21,1199,1198,59,58,1230,1229</elem>
			<elem id="14">21,22,1200,1199,58,57,1231,1230</elem>
			<elem id="15">22,23,1201,1200,57,56,1232,1231</elem>
			<elem id="16">23,24,1202,1201,56,55,1233,1232</elem>
			<elem id="17">24,25,1203,1202,55,54,1234,1233</elem>
			<elem id="18">25,26,1204,1203,54,53,1235,1234</elem>
			<elem id="19">26,27,1205,1204,53,52,1236,1235</elem>
			<elem id="20">27,28,1206,1205,52,51,1237,1236</elem>
<!-- ... 1004 like lines cut -->
		</Elements>
		<Edge name="FixedFluidDilatation1">
			<line2 id="1">3,7</line2>
			<line2 id="2">4,8</line2>
		</Edge>
		<Surface name="FixedFluidVelocity1">
			<quad4 id="1">4,163,257,195</quad4>
			<quad4 id="2">163,162,258,257</quad4>
			<quad4 id="3">162,161,259,258</quad4>
			<quad4 id="4">161,160,260,259</quad4>
			<quad4 id="5">160,159,261,260</quad4>
			<quad4 id="6">159,158,262,261</quad4>
			<quad4 id="7">158,157,263,262</quad4>
			<quad4 id="8">157,156,264,263</quad4>
			<quad4 id="9">156,155,265,264</quad4>
			<quad4 id="10">155,154,266,265</quad4>
			<quad4 id="11">154,153,267,266</quad4>
			<quad4 id="12">153,152,268,267</quad4>
			<quad4 id="13">152,151,269,268</quad4>
			<quad4 id="14">151,150,270,269</quad4>
			<quad4 id="15">150,149,271,270</quad4>
			<quad4 id="16">149,148,272,271</quad4>
			<quad4 id="17">148,147,273,272</quad4>
			<quad4 id="18">147,146,274,273</quad4>
			<quad4 id="19">146,145,275,274</quad4>
			<quad4 id="20">145,144,276,275</quad4>
<!-- ... 2028 like lines cut -->
		</Surface>
		<Surface name="FixedFluidVelocity2">
			<quad4 id="1">1,9,70,5</quad4>
			<quad4 id="2">9,10,69,70</quad4>
			<quad4 id="3">10,11,68,69</quad4>
			<quad4 id="4">11,12,67,68</quad4>
			<quad4 id="5">12,13,66,67</quad4>
			<quad4 id="6">13,14,65,66</quad4>
			<quad4 id="7">14,15,64,65</quad4>
			<quad4 id="8">15,16,63,64</quad4>
			<quad4 id="9">16,17,62,63</quad4>
			<quad4 id="10">17,18,61,62</quad4>
			<quad4 id="11">18,19,60,61</quad4>
			<quad4 id="12">19,20,59,60</quad4>
			<quad4 id="13">20,21,58,59</quad4>
			<quad4 id="14">21,22,57,58</quad4>
			<quad4 id="15">22,23,56,57</quad4>
			<quad4 id="16">23,24,55,56</quad4>
			<quad4 id="17">24,25,54,55</quad4>
			<quad4 id="18">25,26,53,54</quad4>
			<quad4 id="19">26,27,52,53</quad4>
			<quad4 id="20">27,28,51,52</quad4>
<!-- ... 76 like lines cut -->
		</Surface>
		<Surface name="FixedFluidVelocity3">
			<quad4 id="1">3,133,194,7</quad4>
			<quad4 id="2">133,134,193,194</quad4>
			<quad4 id="3">134,135,192,193</quad4>
			<quad4 id="4">135,136,191,192</quad4>
			<quad4 id="5">136,137,190,191</quad4>
			<quad4 id="6">137,138,189,190</quad4>
			<quad4 id="7">138,139,188,189</quad4>
			<quad4 id="8">139,140,187,188</quad4>
			<quad4 id="9">140,141,186,187</quad4>
			<quad4 id="10">141,142,185,186</quad4>
			<quad4 id="11">142,143,184,185</quad4>
			<quad4 id="12">143,144,183,184</quad4>
			<quad4 id="13">144,145,182,183</quad4>
			<quad4 id="14">145,146,181,182</quad4>
			<quad4 id="15">146,147,180,181</quad4>
			<quad4 id="16">147,148,179,180</quad4>
			<quad4 id="17">148,149,178,179</quad4>
			<quad4 id="18">149,150,177,178</quad4>
			<quad4 id="19">150,151,176,177</quad4>
			<quad4 id="20">151,152,175,176</quad4>
<!-- ... 12 like lines cut -->
		</Surface>
		<Surface name="PrescribedFluidVelocity1">
			<quad4 id="1">3,133,194,7</quad4>
			<quad4 id="2">133,134,193,194</quad4>
			<quad4 id="3">134,135,192,193</quad4>
			<quad4 id="4">135,136,191,192</quad4>
			<quad4 id="5">136,137,190,191</quad4>
			<quad4 id="6">137,138,189,190</quad4>
			<quad4 id="7">138,139,188,189</quad4>
			<quad4 id="8">139,140,187,188</quad4>
			<quad4 id="9">140,141,186,187</quad4>
			<quad4 id="10">141,142,185,186</quad4>
			<quad4 id="11">142,143,184,185</quad4>
			<quad4 id="12">143,144,183,184</quad4>
			<quad4 id="13">144,145,182,183</quad4>
			<quad4 id="14">145,146,181,182</quad4>
			<quad4 id="15">146,147,180,181</quad4>
			<quad4 id="16">147,148,179,180</quad4>
			<quad4 id="17">148,149,178,179</quad4>
			<quad4 id="18">149,150,177,178</quad4>
			<quad4 id="19">150,151,176,177</quad4>
			<quad4 id="20">151,152,175,176</quad4>
<!-- ... 12 like lines cut -->
		</Surface>
	</Mesh>
	<MeshDomains>
		<SolidDomain name="Part2" mat="Material1"/>
	</MeshDomains>
	<Boundary>
		<bc name="FixedFluidVelocity1" node_set="@surface:FixedFluidVelocity1" type="zero fluid velocity">
			<wx_dof>0</wx_dof>
			<wy_dof>0</wy_dof>
			<wz_dof>1</wz_dof>
		</bc>
		<bc name="FixedFluidVelocity2" node_set="@surface:FixedFluidVelocity2" type="zero fluid velocity">
			<wx_dof>1</wx_dof>
			<wy_dof>1</wy_dof>
			<wz_dof>0</wz_dof>
		</bc>
		<bc name="FixedFluidVelocity3" node_set="@surface:FixedFluidVelocity3" type="zero fluid velocity">
			<wx_dof>0</wx_dof>
			<wy_dof>1</wy_dof>
			<wz_dof>0</wz_dof>
		</bc>
		<bc name="PrescribedFluidVelocity1" node_set="@surface:PrescribedFluidVelocity1" type="prescribed fluid velocity">
			<dof>wx</dof>
			<value lc="1">1</value>
			<relative>0</relative>
		</bc>
		<bc name="FixedFluidDilatation1" node_set="@edge:FixedFluidDilatation1" type="zero fluid dilatation"/>
	</Boundary>
	<LoadData>
		<load_controller id="1" name="LC1" type="loadcurve">
			<interpolate>SMOOTH</interpolate>
			<extend>CONSTANT</extend>
			<points>
				<pt>0,0</pt>
				<pt>1,1</pt>
			</points>
		</load_controller>
	</LoadData>
	<Output>
		<plotfile type="febio">
			<var type="displacement"/>
			<var type="nodal fluid velocity"/>
			<var type="fluid pressure"/>
			<var type="fluid stress"/>
			<var type="fluid velocity"/>
			<var type="fluid acceleration"/>
			<var type="fluid vorticity"/>
			<var type="fluid rate of deformation"/>
			<var type="fluid dilatation"/>
		</plotfile>
	</Output>
</febio_spec>
