<?xml version="1.0" encoding="ISO-8859-1"?>
<febio_spec version="4.0">
	<Module type="fluid-solutes">
		<units>CGS</units>
	</Module>
	<Control>
		<analysis>DYNAMIC</analysis>
		<time_steps>100</time_steps>
		<step_size>0.1</step_size>
		<plot_zero_state>0</plot_zero_state>
		<plot_range>0,-1</plot_range>
		<plot_level>PLOT_MAJOR_ITRS</plot_level>
		<output_level>OUTPUT_MAJOR_ITRS</output_level>
		<plot_stride>1</plot_stride>
		<adaptor_re_solve>1</adaptor_re_solve>
		<time_stepper type="default">
			<max_retries>5</max_retries>
			<opt_iter>100</opt_iter>
			<dtmin>0</dtmin>
			<dtmax>0.1</dtmax>
			<aggressiveness>0</aggressiveness>
			<cutback>0.5</cutback>
			<dtforce>0</dtforce>
		</time_stepper>
		<solver type="fluid-solutes">
			<symmetric_stiffness>non-symmetric</symmetric_stiffness>
			<equation_scheme>block</equation_scheme>
			<equation_order>default</equation_order>
			<optimize_bw>0</optimize_bw>
			<lstol>0.9</lstol>
			<lsmin>0.01</lsmin>
			<lsiter>5</lsiter>
			<max_refs>5</max_refs>
			<check_zero_diagonal>0</check_zero_diagonal>
			<zero_diagonal_tol>0</zero_diagonal_tol>
			<force_partition>0</force_partition>
			<reform_each_time_step>1</reform_each_time_step>
			<reform_augment>0</reform_augment>
			<diverge_reform>0</diverge_reform>
			<min_residual>1e-20</min_residual>
			<max_residual>1e+20</max_residual>
			<vtol>0.001</vtol>
			<ftol>0.001</ftol>
			<ctol>0</ctol>
			<etol>0.01</etol>
			<rtol>0.001</rtol>
			<rhoi>0</rhoi>
			<predictor>0</predictor>
			<min_volume_ratio>0</min_volume_ratio>
			<force_positive_concentrations>1</force_positive_concentrations>
			<solve_strategy>sequential</solve_strategy>
			<qn_method type="Broyden">
				<max_ups>20</max_ups>
				<max_buffer_size>0</max_buffer_size>
				<cycle_buffer>1</cycle_buffer>
				<cmax>100000</cmax>
			</qn_method>
		</solver>
	</Control>
	<Globals>
		<Constants>
			<T>293</T>
			<P>0</P>
			<R>83.1446</R>
			<Fc>9.64853</Fc>
		</Constants>
		<Solutes>
			<solute id="1" name="neutral">
				<charge_number>0</charge_number>
				<molar_mass>1</molar_mass>
				<density>1</density>
			</solute>
		</Solutes>
	</Globals>
	<Material>
		<material id="1" name="Fluid with neutral solute" type="fluid-solutes">
			<dms>0</dms>
			<fluid>
				<density>1</density>
				<k>2.2e+10</k>
				<viscous type="Newtonian fluid">
					<kappa>0</kappa>
					<mu>0.01</mu>
				</viscous>
				<elastic type="nonlinear"/>
			</fluid>
			<osmotic_coefficient type="osm-coef-const">
				<osmcoef>0</osmcoef>
			</osmotic_coefficient>
			<solute sol="neutral">
				<diffusivity type="diff-const-iso">
					<free_diff>0.01</free_diff>
					<diff>0.01</diff>
				</diffusivity>
				<solubility type="solub-const">
					<solub>1</solub>
				</solubility>
			</solute>
		</material>
	</Material>
	<Mesh>
		<Nodes name="Object1">
			<node id="1">-5,-0.25,0</node>
			<node id="2">5,-0.25,0</node>
			<node id="3">5,0.25,0</node>
			<node id="4">-5,0.25,0</node>
			<node id="5">-5,-0.25,0.5</node>
			<node id="6">5,-0.25,0.5</node>
			<node id="7">5,0.25,0.5</node>
			<node id="8">-5,0.25,0.5</node>
			<node id="9">-4.95,-0.25,0</node>
			<node id="10">-4.9,-0.25,0</node>
			<node id="11">-4.85,-0.25,0</node>
			<node id="12">-4.8,-0.25,0</node>
			<node id="13">-4.75,-0.25,0</node>
			<node id="14">-4.7,-0.25,0</node>
			<node id="15">-4.65,-0.25,0</node>
			<node id="16">-4.6,-0.25,0</node>
			<node id="17">-4.55,-0.25,0</node>
			<node id="18">-4.5,-0.25,0</node>
			<node id="19">-4.45,-0.25,0</node>
			<node id="20">-4.4,-0.25,0</node>
<!-- ... 784 like lines cut -->
		</Nodes>
		<Elements type="hex8" name="Part1">
			<elem id="1">14,15,599,600,401,400,612,611</elem>
			<elem id="2">15,16,598,599,400,399,613,612</elem>
			<elem id="3">16,17,597,598,399,398,614,613</elem>
			<elem id="4">17,18,596,597,398,397,615,614</elem>
			<elem id="5">18,19,595,596,397,396,616,615</elem>
			<elem id="6">19,20,594,595,396,395,617,616</elem>
			<elem id="7">20,21,593,594,395,394,618,617</elem>
			<elem id="8">21,22,592,593,394,393,619,618</elem>
			<elem id="9">22,23,591,592,393,392,620,619</elem>
			<elem id="10">23,24,590,591,392,391,621,620</elem>
			<elem id="11">24,25,589,590,391,390,622,621</elem>
			<elem id="12">25,26,588,589,390,389,623,622</elem>
			<elem id="13">26,27,587,588,389,388,624,623</elem>
			<elem id="14">27,28,586,587,388,387,625,624</elem>
			<elem id="15">28,29,585,586,387,386,626,625</elem>
			<elem id="16">29,30,584,585,386,385,627,626</elem>
			<elem id="17">30,31,583,584,385,384,628,627</elem>
			<elem id="18">31,32,582,583,384,383,629,628</elem>
			<elem id="19">32,33,581,582,383,382,630,629</elem>
			<elem id="20">33,34,580,581,382,381,631,630</elem>
<!-- ... 174 like lines cut -->
		</Elements>
		<Elements type="hex8" name="Part4">
			<elem id="195">1,9,605,4,5,406,606,8</elem>
			<elem id="196">9,10,604,605,406,405,607,606</elem>
			<elem id="197">10,11,603,604,405,404,608,607</elem>
			<elem id="198">11,12,602,603,404,403,609,608</elem>
			<elem id="199">12,13,601,602,403,402,610,609</elem>
			<elem id="200">13,14,600,601,402,401,611,610</elem>
		</Elements>
		<NodeSet name="InitialConcentration1">
			1, 4, 5, 8, 9, 10, 11, 12,
			13, 14, 401, 402, 403, 404, 405, 406,
			600, 601, 602, 603, 604, 605, 606, 607,
			608, 609, 610, 611
		</NodeSet>
		<Surface name="FluidPressure1">
			<quad4 id="1">2,3,7,6</quad4>
		</Surface>
		<Surface name="FluidNormalVelocity1">
			<quad4 id="1">4,1,5,8</quad4>
		</Surface>
		<Surface name="ZeroFluidVelocity2">
			<quad4 id="1">600,599,15,14</quad4>
			<quad4 id="2">599,598,16,15</quad4>
			<quad4 id="3">598,597,17,16</quad4>
			<quad4 id="4">597,596,18,17</quad4>
			<quad4 id="5">596,595,19,18</quad4>
			<quad4 id="6">595,594,20,19</quad4>
			<quad4 id="7">594,593,21,20</quad4>
			<quad4 id="8">593,592,22,21</quad4>
			<quad4 id="9">592,591,23,22</quad4>
			<quad4 id="10">591,590,24,23</quad4>
			<quad4 id="11">590,589,25,24</quad4>
			<quad4 id="12">589,588,26,25</quad4>
			<quad4 id="13">588,587,27,26</quad4>
			<quad4 id="14">587,586,28,27</quad4>
			<quad4 id="15">586,585,29,28</quad4>
			<quad4 id="16">585,584,30,29</quad4>
			<quad4 id="17">584,583,31,30</quad4>
			<quad4 id="18">583,582,32,31</quad4>
			<quad4 id="19">582,581,33,32</quad4>
			<quad4 id="20">581,580,34,33</quad4>
<!-- ... 380 like lines cut -->
		</Surface>
		<Surface name="ZeroFluidVelocity3">
			<quad4 id="1">14,15,400,401</quad4>
			<quad4 id="2">15,16,399,400</quad4>
			<quad4 id="3">16,17,398,399</quad4>
			<quad4 id="4">17,18,397,398</quad4>
			<quad4 id="5">18,19,396,397</quad4>
			<quad4 id="6">19,20,395,396</quad4>
			<quad4 id="7">20,21,394,395</quad4>
			<quad4 id="8">21,22,393,394</quad4>
			<quad4 id="9">22,23,392,393</quad4>
			<quad4 id="10">23,24,391,392</quad4>
			<quad4 id="11">24,25,390,391</quad4>
			<quad4 id="12">25,26,389,390</quad4>
			<quad4 id="13">26,27,388,389</quad4>
			<quad4 id="14">27,28,387,388</quad4>
			<quad4 id="15">28,29,386,387</quad4>
			<quad4 id="16">29,30,385,386</quad4>
			<quad4 id="17">30,31,384,385</quad4>
			<quad4 id="18">31,32,383,384</quad4>
			<quad4 id="19">32,33,382,383</quad4>
			<quad4 id="20">33,34,381,382</quad4>
<!-- ... 380 like lines cut -->
		</Surface>
		<Surface name="ZeroConcentration4">
			<quad4 id="1">4,1,5,8</quad4>
		</Surface>
	</Mesh>
	<MeshDomains>
		<SolidDomain name="Part1" mat="Fluid with neutral solute"/>
		<SolidDomain name="Part4" mat="Fluid with neutral solute"/>
	</MeshDomains>
	<Boundary>
		<bc name="FluidPressure1" surface="FluidPressure1" type="fluid pressure">
			<pressure>0</pressure>
		</bc>
		<bc name="ZeroFluidVelocity2" node_set="@surface:ZeroFluidVelocity2" type="zero fluid velocity">
			<wx_dof>0</wx_dof>
			<wy_dof>0</wy_dof>
			<wz_dof>1</wz_dof>
		</bc>
		<bc name="ZeroFluidVelocity3" node_set="@surface:ZeroFluidVelocity3" type="zero fluid velocity">
			<wx_dof>0</wx_dof>
			<wy_dof>1</wy_dof>
			<wz_dof>0</wz_dof>
		</bc>
		<bc name="ZeroConcentration4" node_set="@surface:ZeroConcentration4" type="zero concentration">
			<c_dof>c1</c_dof>
		</bc>
	</Boundary>
	<Loads>
		<surface_load name="FluidNormalVelocity1" surface="FluidNormalVelocity1" type="fluid normal velocity">
			<velocity lc="1">-1</velocity>
			<prescribe_nodal_velocities>1</prescribe_nodal_velocities>
			<parabolic>0</parabolic>
			<prescribe_rim_pressure>1</prescribe_rim_pressure>
		</surface_load>
	</Loads>
	<Initial>
		<ic name="InitialConcentration1" node_set="InitialConcentration1" type="initial concentration">
			<dof>c1</dof>
			<value>1</value>
		</ic>
	</Initial>
	<LoadData>
		<load_controller id="1" name="LC1" type="loadcurve">
			<interpolate>CONTROL POINTS</interpolate>
			<extend>CONSTANT</extend>
			<points>
				<pt>0,0</pt>
				<pt>0.049,0</pt>
				<pt>0.051,1</pt>
				<pt>0.1,1</pt>
			</points>
		</load_controller>
	</LoadData>
	<Output>
		<plotfile type="febio">
			<var type="displacement"/>
			<var type="effective fluid pressure"/>
			<var type="effective solute concentration"/>
			<var type="fluid acceleration"/>
			<var type="fluid dilatation"/>
			<var type="fluid pressure"/>
			<var type="fluid rate of deformation"/>
			<var type="fluid stress"/>
			<var type="fluid velocity"/>
			<var type="fluid volume ratio"/>
			<var type="fluid vorticity"/>
			<var type="nodal fluid velocity"/>
			<var type="solute concentration"/>
			<var type="solute flux"/>
		</plotfile>
	</Output>
</febio_spec>
