<?xml version="1.0" encoding="ISO-8859-1"?>
<febio_spec version="2.5">
	<Module type="fluid"/>
	<Control>
		<time_steps>10</time_steps>
		<step_size>0.1</step_size>
		<max_refs>5</max_refs>
		<max_ups>10</max_ups>
		<diverge_reform>0</diverge_reform>
		<reform_each_time_step>0</reform_each_time_step>
		<vtol>0.001</vtol>
		<ftol>0.001</ftol>
		<etol>0.01</etol>
		<rtol>0.001</rtol>
		<lstol>0.9</lstol>
		<min_residual>0</min_residual>
		<rhoi>-1</rhoi>
		<qnmethod>1</qnmethod>
		<time_stepper>
			<dtmin>0.01</dtmin>
			<dtmax>0.1</dtmax>
			<max_retries>50</max_retries>
			<opt_iter>50</opt_iter>
		</time_stepper>
		<analysis type="steady-state"/>
		<symmetric_stiffness>0</symmetric_stiffness>
		<equation_scheme>1</equation_scheme>
	</Control>
	<Globals>
		<Constants>
			<T>0</T>
			<R>0</R>
			<Fc>0</Fc>
		</Constants>
	</Globals>
	<Material>
		<material id="1" name="Material1" type="fluid">
			<density>1</density>
			<k>1e+009</k>
			<viscous type="Newtonian fluid">
				<mu>1</mu>
				<kappa>0</kappa>
			</viscous>
		</material>
	</Material>
	<Geometry>
		<Nodes name="Object01">
			<node id="1">-2.4150635e+000, 8.1698728e-001,-6.2450045e-017</node>
			<node id="2">-2.4150635e+000, 8.1698728e-001, 1.0000000e-001</node>
			<node id="3">-2.4063337e+000, 8.3210776e-001,-6.2450045e-017</node>
			<node id="4">-2.4063337e+000, 8.3210776e-001, 1.0000000e-001</node>
			<node id="5">-2.3967309e+000, 8.4874028e-001,-6.2450045e-017</node>
			<node id="6">-2.3967309e+000, 8.4874028e-001, 1.0000000e-001</node>
			<node id="7">-2.3861678e+000, 8.6703606e-001,-6.2450045e-017</node>
			<node id="8">-2.3861678e+000, 8.6703606e-001, 1.0000000e-001</node>
			<node id="9">-2.3745485e+000, 8.8716142e-001,-6.2450045e-017</node>
			<node id="10">-2.3745485e+000, 8.8716142e-001, 1.0000000e-001</node>
			<node id="11">-2.3617671e+000, 9.0929931e-001,-6.2450045e-017</node>
			<node id="12">-2.3617671e+000, 9.0929931e-001, 1.0000000e-001</node>
			<node id="13">-2.3477077e+000, 9.3365099e-001,-6.2450045e-017</node>
			<node id="14">-2.3477077e+000, 9.3365099e-001, 1.0000000e-001</node>
			<node id="15">-2.3322423e+000, 9.6043784e-001,-6.2450045e-017</node>
			<node id="16">-2.3322423e+000, 9.6043784e-001, 1.0000000e-001</node>
			<node id="17">-2.3152304e+000, 9.8990338e-001,-6.2450045e-017</node>
			<node id="18">-2.3152304e+000, 9.8990338e-001, 1.0000000e-001</node>
			<node id="19">-2.2965172e+000, 1.0223155e+000,-6.2450045e-017</node>
			<node id="20">-2.2965172e+000, 1.0223155e+000, 1.0000000e-001</node>
<!-- ... 442 like lines cut -->
		</Nodes>
		<Elements type="hex8" mat="1" name="Part1">
			<elem id="1">     1,    43,    45,     3,     2,    44,    46,     4</elem>
			<elem id="2">     3,    45,    47,     5,     4,    46,    48,     6</elem>
			<elem id="3">     5,    47,    49,     7,     6,    48,    50,     8</elem>
			<elem id="4">     7,    49,    51,     9,     8,    50,    52,    10</elem>
			<elem id="5">     9,    51,    53,    11,    10,    52,    54,    12</elem>
			<elem id="6">    11,    53,    55,    13,    12,    54,    56,    14</elem>
			<elem id="7">    13,    55,    57,    15,    14,    56,    58,    16</elem>
			<elem id="8">    15,    57,    59,    17,    16,    58,    60,    18</elem>
			<elem id="9">    17,    59,    61,    19,    18,    60,    62,    20</elem>
			<elem id="10">    19,    61,    63,    21,    20,    62,    64,    22</elem>
			<elem id="11">    21,    63,    65,    23,    22,    64,    66,    24</elem>
			<elem id="12">    23,    65,    67,    25,    24,    66,    68,    26</elem>
			<elem id="13">    25,    67,    69,    27,    26,    68,    70,    28</elem>
			<elem id="14">    27,    69,    71,    29,    28,    70,    72,    30</elem>
			<elem id="15">    29,    71,    73,    31,    30,    72,    74,    32</elem>
			<elem id="16">    31,    73,    75,    33,    32,    74,    76,    34</elem>
			<elem id="17">    33,    75,    77,    35,    34,    76,    78,    36</elem>
			<elem id="18">    35,    77,    79,    37,    36,    78,    80,    38</elem>
			<elem id="19">    37,    79,    81,    39,    38,    80,    82,    40</elem>
			<elem id="20">    39,    81,    83,    41,    40,    82,    84,    42</elem>
<!-- ... 180 like lines cut -->
		</Elements>
		<NodeSet name="FixedFluidVelocity1">
			<node id="1"/>
			<node id="2"/>
			<node id="43"/>
			<node id="44"/>
			<node id="85"/>
			<node id="86"/>
			<node id="127"/>
			<node id="128"/>
			<node id="169"/>
			<node id="170"/>
			<node id="211"/>
			<node id="212"/>
			<node id="253"/>
			<node id="254"/>
			<node id="295"/>
			<node id="296"/>
			<node id="337"/>
			<node id="338"/>
			<node id="379"/>
			<node id="380"/>
			<node id="421"/>
			<node id="422"/>
		</NodeSet>
		<NodeSet name="FixedFluidVelocity2">
			<node id="1"/>
			<node id="2"/>
			<node id="3"/>
			<node id="4"/>
			<node id="5"/>
			<node id="6"/>
			<node id="7"/>
			<node id="8"/>
			<node id="9"/>
			<node id="10"/>
			<node id="11"/>
			<node id="12"/>
			<node id="13"/>
			<node id="14"/>
			<node id="15"/>
			<node id="16"/>
			<node id="17"/>
			<node id="18"/>
			<node id="19"/>
			<node id="20"/>
<!-- ... 904 like lines cut -->
		</NodeSet>
		<NodeSet name="PrescribedFluidDilatation1">
			<node id="421"/>
			<node id="422"/>
			<node id="423"/>
			<node id="424"/>
			<node id="425"/>
			<node id="426"/>
			<node id="427"/>
			<node id="428"/>
			<node id="429"/>
			<node id="430"/>
			<node id="431"/>
			<node id="432"/>
			<node id="433"/>
			<node id="434"/>
			<node id="435"/>
			<node id="436"/>
			<node id="437"/>
			<node id="438"/>
			<node id="439"/>
			<node id="440"/>
<!-- ... 22 like lines cut -->
		</NodeSet>
		<NodeSet name="PrescribedFluidDilatation2">
			<node id="1"/>
			<node id="2"/>
			<node id="3"/>
			<node id="4"/>
			<node id="5"/>
			<node id="6"/>
			<node id="7"/>
			<node id="8"/>
			<node id="9"/>
			<node id="10"/>
			<node id="11"/>
			<node id="12"/>
			<node id="13"/>
			<node id="14"/>
			<node id="15"/>
			<node id="16"/>
			<node id="17"/>
			<node id="18"/>
			<node id="19"/>
			<node id="20"/>
<!-- ... 22 like lines cut -->
		</NodeSet>
		<Surface name="NormalFlowConstraint1">
			<quad4 id="1">    41,    39,    40,    42</quad4>
			<quad4 id="2">    39,    37,    38,    40</quad4>
			<quad4 id="3">    37,    35,    36,    38</quad4>
			<quad4 id="4">    35,    33,    34,    36</quad4>
			<quad4 id="5">    33,    31,    32,    34</quad4>
			<quad4 id="6">    31,    29,    30,    32</quad4>
			<quad4 id="7">    29,    27,    28,    30</quad4>
			<quad4 id="8">    27,    25,    26,    28</quad4>
			<quad4 id="9">    25,    23,    24,    26</quad4>
			<quad4 id="10">    23,    21,    22,    24</quad4>
			<quad4 id="11">    21,    19,    20,    22</quad4>
			<quad4 id="12">    19,    17,    18,    20</quad4>
			<quad4 id="13">    17,    15,    16,    18</quad4>
			<quad4 id="14">    15,    13,    14,    16</quad4>
			<quad4 id="15">    13,    11,    12,    14</quad4>
			<quad4 id="16">    11,     9,    10,    12</quad4>
			<quad4 id="17">     9,     7,     8,    10</quad4>
			<quad4 id="18">     7,     5,     6,     8</quad4>
			<quad4 id="19">     5,     3,     4,     6</quad4>
			<quad4 id="20">     3,     1,     2,     4</quad4>
		</Surface>
		<Surface name="NormalFlowConstraint2">
			<quad4 id="1">   421,   423,   424,   422</quad4>
			<quad4 id="2">   423,   425,   426,   424</quad4>
			<quad4 id="3">   425,   427,   428,   426</quad4>
			<quad4 id="4">   427,   429,   430,   428</quad4>
			<quad4 id="5">   429,   431,   432,   430</quad4>
			<quad4 id="6">   431,   433,   434,   432</quad4>
			<quad4 id="7">   433,   435,   436,   434</quad4>
			<quad4 id="8">   435,   437,   438,   436</quad4>
			<quad4 id="9">   437,   439,   440,   438</quad4>
			<quad4 id="10">   439,   441,   442,   440</quad4>
			<quad4 id="11">   441,   443,   444,   442</quad4>
			<quad4 id="12">   443,   445,   446,   444</quad4>
			<quad4 id="13">   445,   447,   448,   446</quad4>
			<quad4 id="14">   447,   449,   450,   448</quad4>
			<quad4 id="15">   449,   451,   452,   450</quad4>
			<quad4 id="16">   451,   453,   454,   452</quad4>
			<quad4 id="17">   453,   455,   456,   454</quad4>
			<quad4 id="18">   455,   457,   458,   456</quad4>
			<quad4 id="19">   457,   459,   460,   458</quad4>
			<quad4 id="20">   459,   461,   462,   460</quad4>
		</Surface>
	</Geometry>
	<MeshData>
		<NodeData name="down_stream" generator="math" node_set="PrescribedFluidDilatation1">
			<math>1e-9*Y</math>
		</NodeData>
		<NodeData name="up_stream" generator="math" node_set="PrescribedFluidDilatation2">
			<math>1e-9*(Y-10)</math>
		</NodeData>
	</MeshData>
	<Boundary>
		<fix bc="wx,wy" node_set="FixedFluidVelocity1"/>
		<fix bc="wz" node_set="FixedFluidVelocity2"/>
		<prescribe bc="ef" node_set="PrescribedFluidDilatation1">
			<scale lc="1">1</scale>
			<relative>0</relative>
			<value node_data="down_stream"/>
		</prescribe>
		<prescribe bc="ef" node_set="PrescribedFluidDilatation2">
			<scale lc="2">1</scale>
			<relative>0</relative>
			<value node_data="up_stream"/>
		</prescribe>
	</Boundary>
	<Loads>
		<body_load type="const">
			<x lc="3">0</x>
			<y lc="4">1</y>
			<z lc="5">0</z>
		</body_load>
	</Loads>
	<Contact>
	</Contact>
	<Constraints>
		<constraint type="normal fluid flow" name="NormalFlowConstraint1" surface="NormalFlowConstraint1">
			<laugon>0</laugon>
			<tol>0.2</tol>
			<penalty>1e+006</penalty>
			<minaug>0</minaug>
			<maxaug>0</maxaug>
			<rhs>0</rhs>
		</constraint>
		<constraint type="normal fluid flow" name="NormalFlowConstraint2" surface="NormalFlowConstraint2">
			<laugon>0</laugon>
			<tol>0.2</tol>
			<penalty>1e+006</penalty>
			<minaug>0</minaug>
			<maxaug>0</maxaug>
			<rhs>0</rhs>
		</constraint>
	</Constraints>
	<LoadData>
		<loadcurve id="1" type="smooth">
			<point>0,0</point>
			<point>1,1</point>
		</loadcurve>
		<loadcurve id="2" type="smooth">
			<point>0,0</point>
			<point>1,1</point>
		</loadcurve>
		<loadcurve id="3" type="smooth">
			<point>0,0</point>
			<point>1,1</point>
		</loadcurve>
		<loadcurve id="4" type="smooth">
			<point>0,0</point>
			<point>1,1</point>
		</loadcurve>
		<loadcurve id="5" type="smooth">
			<point>0,0</point>
			<point>1,1</point>
		</loadcurve>
	</LoadData>
	<Output>
		<plotfile type="febio">
			<var type="stress"/>
			<var type="fluid pressure"/>
			<var type="fluid acceleration"/>
			<var type="fluid dilatation"/>
			<var type="fluid rate of deformation"/>
			<var type="fluid stress"/>
			<var type="fluid velocity"/>
			<var type="fluid volume ratio"/>
			<var type="fluid vorticity"/>
			<var type="nodal fluid velocity"/>
		</plotfile>
	</Output>
</febio_spec>
