<?xml version="1.0" encoding="ISO-8859-1"?>
<!--
24x24 biased lid driven cavity box problem RE=400. x-vel prescribed on the
lid of the box to create vortex within. Uses must points to
shorten problem to reach steady state. Hex20G8 elements

Similar examples seen in results of
Ateshian GA, Shim JJ, Maas SA, Weiss JA. (2018) J Biomech Eng, 140(2):021001-021001-17.
-->
<febio_spec version="3.0">
	<Module type="fluid"/>
	<Control>
		<analysis>DYNAMIC</analysis>
		<time_steps>10000</time_steps>
		<step_size>0.1</step_size>
		<solver>
			<max_refs>2</max_refs>
			<max_ups>50</max_ups>
			<diverge_reform>0</diverge_reform>
			<reform_each_time_step>0</reform_each_time_step>
			<vtol>0.001</vtol>
			<ftol>0.001</ftol>
			<etol>0.01</etol>
			<rtol>0.001</rtol>
			<lstol>0.9</lstol>
			<min_residual>5e-16</min_residual>
			<max_residual>1e+20</max_residual>
			<rhoi>0</rhoi>
			<qnmethod>BROYDEN</qnmethod>
			<equation_scheme>1</equation_scheme>
			<symmetric_stiffness>0</symmetric_stiffness>
		</solver>
		<time_stepper>
			<dtmin>0.1</dtmin>
			<dtmax lc="1"></dtmax>
			<max_retries>5</max_retries>
			<opt_iter>50</opt_iter>
		</time_stepper>
	</Control>
	<Globals>
		<Constants>
			<T>0</T>
			<R>0</R>
			<Fc>0</Fc>
		</Constants>
	</Globals>
	<Material>
		<material id="1" name="Material1" type="fluid">
			<density>1</density>
			<k>1e+09</k>
			<viscous type="Newtonian fluid">
				<mu>0.0025</mu>
				<kappa>0</kappa>
			</viscous>
		</material>
	</Material>
	<Mesh>
		<Nodes name="Object01">
			<node id="1">0,0,0</node>
			<node id="2">0,0,0.025</node>
			<node id="3">0,0,0.05</node>
			<node id="4">0,0.0027149148,0</node>
			<node id="5">0,0.0027149148,0.05</node>
			<node id="6">0,0.0058370668,0</node>
			<node id="7">0,0.0058370668,0.025</node>
			<node id="8">0,0.0058370668,0.05</node>
			<node id="9">0,0.0094275417,0</node>
			<node id="10">0,0.0094275417,0.05</node>
			<node id="11">0,0.013556588,0</node>
			<node id="12">0,0.013556588,0.025</node>
			<node id="13">0,0.013556588,0.05</node>
			<node id="14">0,0.018304991,0</node>
			<node id="15">0,0.018304991,0.05</node>
			<node id="16">0,0.023765654,0</node>
			<node id="17">0,0.023765654,0.025</node>
			<node id="18">0,0.023765654,0.05</node>
			<node id="19">0,0.030045417,0</node>
			<node id="20">0,0.030045417,0.05</node>
<!-- ... 4255 like lines cut -->
		</Nodes>
		<Elements type="hex20" name="Part1">
			<elem id="1">1,174,179,6,3,176,181,8,124,177,126,4,125,178,127,5,2,175,180,7</elem>
			<elem id="2">6,179,184,11,8,181,186,13,126,182,128,9,127,183,129,10,7,180,185,12</elem>
			<elem id="3">11,184,189,16,13,186,191,18,128,187,130,14,129,188,131,15,12,185,190,17</elem>
			<elem id="4">16,189,194,21,18,191,196,23,130,192,132,19,131,193,133,20,17,190,195,22</elem>
			<elem id="5">21,194,199,26,23,196,201,28,132,197,134,24,133,198,135,25,22,195,200,27</elem>
			<elem id="6">26,199,204,31,28,201,206,33,134,202,136,29,135,203,137,30,27,200,205,32</elem>
			<elem id="7">31,204,209,36,33,206,211,38,136,207,138,34,137,208,139,35,32,205,210,37</elem>
			<elem id="8">36,209,214,41,38,211,216,43,138,212,140,39,139,213,141,40,37,210,215,42</elem>
			<elem id="9">41,214,219,46,43,216,221,48,140,217,142,44,141,218,143,45,42,215,220,47</elem>
			<elem id="10">46,219,224,51,48,221,226,53,142,222,144,49,143,223,145,50,47,220,225,52</elem>
			<elem id="11">51,224,229,56,53,226,231,58,144,227,146,54,145,228,147,55,52,225,230,57</elem>
			<elem id="12">56,229,234,61,58,231,236,63,146,232,148,59,147,233,149,60,57,230,235,62</elem>
			<elem id="13">61,234,239,66,63,236,241,68,148,237,150,64,149,238,151,65,62,235,240,67</elem>
			<elem id="14">66,239,244,71,68,241,246,73,150,242,152,69,151,243,153,70,67,240,245,72</elem>
			<elem id="15">71,244,249,76,73,246,251,78,152,247,154,74,153,248,155,75,72,245,250,77</elem>
			<elem id="16">76,249,254,81,78,251,256,83,154,252,156,79,155,253,157,80,77,250,255,82</elem>
			<elem id="17">81,254,259,86,83,256,261,88,156,257,158,84,157,258,159,85,82,255,260,87</elem>
			<elem id="18">86,259,264,91,88,261,266,93,158,262,160,89,159,263,161,90,87,260,265,92</elem>
			<elem id="19">91,264,269,96,93,266,271,98,160,267,162,94,161,268,163,95,92,265,270,97</elem>
			<elem id="20">96,269,274,101,98,271,276,103,162,272,164,99,163,273,165,100,97,270,275,102</elem>
<!-- ... 556 like lines cut -->
		</Elements>
		<NodeSet name="FixedFluidVelocity01">
			<n id="1"/>
			<n id="2"/>
			<n id="3"/>
			<n id="4"/>
			<n id="5"/>
			<n id="6"/>
			<n id="7"/>
			<n id="8"/>
			<n id="9"/>
			<n id="10"/>
			<n id="11"/>
			<n id="12"/>
			<n id="13"/>
			<n id="14"/>
			<n id="15"/>
			<n id="16"/>
			<n id="17"/>
			<n id="18"/>
			<n id="19"/>
			<n id="20"/>
<!-- ... 1069 like lines cut -->
		</NodeSet>
		<NodeSet name="FixedFluidVelocity02">
			<n id="121"/>
			<n id="122"/>
			<n id="123"/>
			<n id="172"/>
			<n id="173"/>
			<n id="294"/>
			<n id="295"/>
			<n id="296"/>
			<n id="345"/>
			<n id="346"/>
			<n id="467"/>
			<n id="468"/>
			<n id="469"/>
			<n id="518"/>
			<n id="519"/>
			<n id="640"/>
			<n id="641"/>
			<n id="642"/>
			<n id="691"/>
			<n id="692"/>
<!-- ... 103 like lines cut -->
		</NodeSet>
		<NodeSet name="FixedFluidDilatation01">
			<n id="121"/>
			<n id="122"/>
			<n id="123"/>
			<n id="4273"/>
			<n id="4274"/>
			<n id="4275"/>
			<n id="121"/>
			<n id="122"/>
			<n id="123"/>
			<n id="4273"/>
			<n id="4274"/>
			<n id="4275"/>
		</NodeSet>
		<NodeSet name="FixedFluidVelocity03">
			<n id="1"/>
			<n id="3"/>
			<n id="4"/>
			<n id="5"/>
			<n id="6"/>
			<n id="8"/>
			<n id="9"/>
			<n id="10"/>
			<n id="11"/>
			<n id="13"/>
			<n id="14"/>
			<n id="15"/>
			<n id="16"/>
			<n id="18"/>
			<n id="19"/>
			<n id="20"/>
			<n id="21"/>
			<n id="23"/>
			<n id="24"/>
			<n id="25"/>
<!-- ... 7280 like lines cut -->
		</NodeSet>
		<NodeSet name="PrescribedBC130">
			<n id="121"/>
			<n id="122"/>
			<n id="123"/>
			<n id="172"/>
			<n id="173"/>
			<n id="294"/>
			<n id="295"/>
			<n id="296"/>
			<n id="345"/>
			<n id="346"/>
			<n id="467"/>
			<n id="468"/>
			<n id="469"/>
			<n id="518"/>
			<n id="519"/>
			<n id="640"/>
			<n id="641"/>
			<n id="642"/>
			<n id="691"/>
			<n id="692"/>
<!-- ... 103 like lines cut -->
		</NodeSet>
	</Mesh>
	<MeshDomains>
		<SolidDomain name="Part1" mat="Material1"/>
	</MeshDomains>
	<Boundary>
		<bc name="FixedFluidVelocity01" type="fix" node_set="FixedFluidVelocity01">
			<dofs>wx,wy,wz</dofs>
		</bc>
		<bc name="FixedFluidVelocity02" type="fix" node_set="FixedFluidVelocity02">
			<dofs>wx,wz</dofs>
		</bc>
		<bc name="FixedFluidDilatation01" type="fix" node_set="FixedFluidDilatation01">
			<dofs>ef</dofs>
		</bc>
		<bc name="FixedFluidVelocity03" type="fix" node_set="FixedFluidVelocity03">
			<dofs>wz</dofs>
		</bc>
		<bc name="PrescribedBC130" type="prescribe" node_set="PrescribedBC130">
			<dof>wx</dof>
			<scale lc="2">1</scale>
			<relative>0</relative>
		</bc>
	</Boundary>
	<LoadData>
		<load_controller id="1" type="loadcurve">
			<interpolate>STEP</interpolate>
			<points>
				<point>0,0</point>
				<point>1,0.1</point>
				<point>2,0.1</point>
				<point>10,1</point>
				<point>100,10</point>
				<point>1000,100</point>
			</points>
		</load_controller>
		<load_controller id="2" type="loadcurve">
			<interpolate>SMOOTH</interpolate>
			<points>
				<point>0,0</point>
				<point>1,1</point>
			</points>
		</load_controller>
	</LoadData>
	<Output>
		<plotfile type="febio">
			<var type="displacement"/>
			<var type="fluid pressure"/>
			<var type="fluid acceleration"/>
			<var type="fluid dilatation"/>
			<var type="fluid rate of deformation"/>
			<var type="fluid stress"/>
			<var type="fluid velocity"/>
			<var type="fluid vorticity"/>
			<var type="nodal fluid velocity"/>
		</plotfile>
	</Output>
</febio_spec>
