<?xml version="1.0" encoding="ISO-8859-1"?>
<!--
    Test problem for fluid RCR (3-element Windkessel) surface load,
    which has an analytical solution that can be used for verification.
-->
<febio_spec version="3.0">
	<Module type="fluid"/>
	<Control>
		<analysis>DYNAMIC</analysis>
		<time_steps>1000</time_steps>
		<step_size>0.01</step_size>
		<solver>
			<max_refs>5</max_refs>
			<max_ups>50</max_ups>
			<diverge_reform>0</diverge_reform>
			<reform_each_time_step>0</reform_each_time_step>
			<vtol>0.001</vtol>
			<ftol>0.001</ftol>
			<etol>0.01</etol>
			<rtol>0.001</rtol>
			<lstol>0.9</lstol>
			<min_residual>1e-20</min_residual>
			<max_residual>1e+20</max_residual>
			<rhoi>0</rhoi>
			<qnmethod>BROYDEN</qnmethod>
			<equation_scheme>1</equation_scheme>
		</solver>
		<time_stepper>
			<dtmin>0.001</dtmin>
			<dtmax>0.01</dtmax>
			<max_retries>5</max_retries>
			<opt_iter>50</opt_iter>
		</time_stepper>
	</Control>
	<Globals>
		<Constants>
			<T>0</T>
			<R>0</R>
			<Fc>0</Fc>
		</Constants>
	</Globals>
	<Material>
		<material id="1" name="Material1" type="fluid">
			<density>1</density>
			<k>2.2e+10</k>
			<viscous type="Newtonian fluid">
				<mu>0.01</mu>
				<kappa>0</kappa>
			</viscous>
		</material>
	</Material>
	<Mesh>
		<Nodes name="Object1">
			<node id="1">0,0,0</node>
			<node id="2">0.203416618,0,0</node>
			<node id="3">0.199508025,0.0396846129,0</node>
			<node id="4">0.187932451,0.0778441683,0</node>
			<node id="5">0.169134738,0.113012216,0</node>
			<node id="6">0.143837272,0.143837268,0</node>
			<node id="7">0.113012221,0.169134735,0</node>
			<node id="8">0.0778441734,0.187932448,0</node>
			<node id="9">0.0396846182,0.199508024,0</node>
			<node id="10">5.45052724e-09,0.203416618,0</node>
			<node id="11">-0.0396846075,0.199508026,0</node>
			<node id="12">-0.0778441633,0.187932453,0</node>
			<node id="13">-0.113012212,0.169134741,0</node>
			<node id="14">-0.143837264,0.143837276,0</node>
			<node id="15">-0.169134732,0.113012225,0</node>
			<node id="16">-0.187932446,0.0778441784,0</node>
			<node id="17">-0.199508023,0.0396846235,0</node>
			<node id="18">-0.203416618,1.09010545e-08,0</node>
			<node id="19">-0.199508027,-0.0396846022,0</node>
			<node id="20">-0.187932455,-0.0778441583,0</node>
<!-- ... 494 like lines cut -->
		</Nodes>
		<Elements type="penta6" name="Part1">
			<elem id="1">1,2,3,258,259,260</elem>
			<elem id="2">1,3,4,258,260,261</elem>
			<elem id="3">1,4,5,258,261,262</elem>
			<elem id="4">1,5,6,258,262,263</elem>
			<elem id="5">1,6,7,258,263,264</elem>
			<elem id="6">1,7,8,258,264,265</elem>
			<elem id="7">1,8,9,258,265,266</elem>
			<elem id="8">1,9,10,258,266,267</elem>
			<elem id="9">1,10,11,258,267,268</elem>
			<elem id="10">1,11,12,258,268,269</elem>
			<elem id="11">1,12,13,258,269,270</elem>
			<elem id="12">1,13,14,258,270,271</elem>
			<elem id="13">1,14,15,258,271,272</elem>
			<elem id="14">1,15,16,258,272,273</elem>
			<elem id="15">1,16,17,258,273,274</elem>
			<elem id="16">1,17,18,258,274,275</elem>
			<elem id="17">1,18,19,258,275,276</elem>
			<elem id="18">1,19,20,258,276,277</elem>
			<elem id="19">1,20,21,258,277,278</elem>
			<elem id="20">1,21,22,258,278,279</elem>
<!-- ... 12 like lines cut -->
		</Elements>
		<Elements type="hex8" name="Part1__2">
			<elem id="33">2,34,35,3,259,291,292,260</elem>
			<elem id="34">3,35,36,4,260,292,293,261</elem>
			<elem id="35">4,36,37,5,261,293,294,262</elem>
			<elem id="36">5,37,38,6,262,294,295,263</elem>
			<elem id="37">6,38,39,7,263,295,296,264</elem>
			<elem id="38">7,39,40,8,264,296,297,265</elem>
			<elem id="39">8,40,41,9,265,297,298,266</elem>
			<elem id="40">9,41,42,10,266,298,299,267</elem>
			<elem id="41">10,42,43,11,267,299,300,268</elem>
			<elem id="42">11,43,44,12,268,300,301,269</elem>
			<elem id="43">12,44,45,13,269,301,302,270</elem>
			<elem id="44">13,45,46,14,270,302,303,271</elem>
			<elem id="45">14,46,47,15,271,303,304,272</elem>
			<elem id="46">15,47,48,16,272,304,305,273</elem>
			<elem id="47">16,48,49,17,273,305,306,274</elem>
			<elem id="48">17,49,50,18,274,306,307,275</elem>
			<elem id="49">18,50,51,19,275,307,308,276</elem>
			<elem id="50">19,51,52,20,276,308,309,277</elem>
			<elem id="51">20,52,53,21,277,309,310,278</elem>
			<elem id="52">21,53,54,22,278,310,311,279</elem>
<!-- ... 204 like lines cut -->
		</Elements>
		<Surface name="FixedFluidVelocity1">
			<quad4 id="1">226,227,484,483</quad4>
			<quad4 id="2">227,228,485,484</quad4>
			<quad4 id="3">228,229,486,485</quad4>
			<quad4 id="4">229,230,487,486</quad4>
			<quad4 id="5">230,231,488,487</quad4>
			<quad4 id="6">231,232,489,488</quad4>
			<quad4 id="7">232,233,490,489</quad4>
			<quad4 id="8">233,234,491,490</quad4>
			<quad4 id="9">234,235,492,491</quad4>
			<quad4 id="10">235,236,493,492</quad4>
			<quad4 id="11">236,237,494,493</quad4>
			<quad4 id="12">237,238,495,494</quad4>
			<quad4 id="13">238,239,496,495</quad4>
			<quad4 id="14">239,240,497,496</quad4>
			<quad4 id="15">240,241,498,497</quad4>
			<quad4 id="16">241,242,499,498</quad4>
			<quad4 id="17">242,243,500,499</quad4>
			<quad4 id="18">243,244,501,500</quad4>
			<quad4 id="19">244,245,502,501</quad4>
			<quad4 id="20">245,246,503,502</quad4>
<!-- ... 12 like lines cut -->
		</Surface>
		<Surface name="FluidNormalVelocity1">
			<tri3 id="1">1,3,2</tri3>
			<quad4 id="2">3,35,34,2</quad4>
			<quad4 id="3">35,67,66,34</quad4>
			<quad4 id="4">67,99,98,66</quad4>
			<quad4 id="5">99,131,130,98</quad4>
			<quad4 id="6">131,163,162,130</quad4>
			<quad4 id="7">163,195,194,162</quad4>
			<quad4 id="8">195,227,226,194</quad4>
			<tri3 id="9">1,4,3</tri3>
			<quad4 id="10">4,36,35,3</quad4>
			<quad4 id="11">36,68,67,35</quad4>
			<quad4 id="12">68,100,99,67</quad4>
			<quad4 id="13">100,132,131,99</quad4>
			<quad4 id="14">132,164,163,131</quad4>
			<quad4 id="15">164,196,195,163</quad4>
			<quad4 id="16">196,228,227,195</quad4>
			<tri3 id="17">1,5,4</tri3>
			<quad4 id="18">5,37,36,4</quad4>
			<quad4 id="19">37,69,68,36</quad4>
			<quad4 id="20">69,101,100,68</quad4>
			<quad4 id="21">101,133,132,100</quad4>
			<quad4 id="22">133,165,164,132</quad4>
			<quad4 id="23">165,197,196,164</quad4>
			<quad4 id="24">197,229,228,196</quad4>
			<tri3 id="25">1,6,5</tri3>
			<quad4 id="26">6,38,37,5</quad4>
			<quad4 id="27">38,70,69,37</quad4>
			<quad4 id="28">70,102,101,69</quad4>
			<quad4 id="29">102,134,133,101</quad4>
			<quad4 id="30">134,166,165,133</quad4>
			<quad4 id="31">166,198,197,165</quad4>
			<quad4 id="32">198,230,229,197</quad4>
			<tri3 id="33">1,7,6</tri3>
			<quad4 id="34">7,39,38,6</quad4>
			<quad4 id="35">39,71,70,38</quad4>
			<quad4 id="36">71,103,102,70</quad4>
			<quad4 id="37">103,135,134,102</quad4>
			<quad4 id="38">135,167,166,134</quad4>
			<quad4 id="39">167,199,198,166</quad4>
			<quad4 id="40">199,231,230,198</quad4>
			<tri3 id="41">1,8,7</tri3>
			<quad4 id="42">8,40,39,7</quad4>
			<quad4 id="43">40,72,71,39</quad4>
			<quad4 id="44">72,104,103,71</quad4>
			<quad4 id="45">104,136,135,103</quad4>
			<quad4 id="46">136,168,167,135</quad4>
			<quad4 id="47">168,200,199,167</quad4>
			<quad4 id="48">200,232,231,199</quad4>
			<tri3 id="49">1,9,8</tri3>
			<quad4 id="50">9,41,40,8</quad4>
			<quad4 id="51">41,73,72,40</quad4>
			<quad4 id="52">73,105,104,72</quad4>
			<quad4 id="53">105,137,136,104</quad4>
			<quad4 id="54">137,169,168,136</quad4>
			<quad4 id="55">169,201,200,168</quad4>
			<quad4 id="56">201,233,232,200</quad4>
			<tri3 id="57">1,10,9</tri3>
			<quad4 id="58">10,42,41,9</quad4>
			<quad4 id="59">42,74,73,41</quad4>
			<quad4 id="60">74,106,105,73</quad4>
			<quad4 id="61">106,138,137,105</quad4>
			<quad4 id="62">138,170,169,137</quad4>
			<quad4 id="63">170,202,201,169</quad4>
			<quad4 id="64">202,234,233,201</quad4>
			<tri3 id="65">1,11,10</tri3>
			<quad4 id="66">11,43,42,10</quad4>
			<quad4 id="67">43,75,74,42</quad4>
			<quad4 id="68">75,107,106,74</quad4>
			<quad4 id="69">107,139,138,106</quad4>
			<quad4 id="70">139,171,170,138</quad4>
			<quad4 id="71">171,203,202,170</quad4>
			<quad4 id="72">203,235,234,202</quad4>
			<tri3 id="73">1,12,11</tri3>
			<quad4 id="74">12,44,43,11</quad4>
			<quad4 id="75">44,76,75,43</quad4>
			<quad4 id="76">76,108,107,75</quad4>
			<quad4 id="77">108,140,139,107</quad4>
			<quad4 id="78">140,172,171,139</quad4>
			<quad4 id="79">172,204,203,171</quad4>
			<quad4 id="80">204,236,235,203</quad4>
			<tri3 id="81">1,13,12</tri3>
			<quad4 id="82">13,45,44,12</quad4>
			<quad4 id="83">45,77,76,44</quad4>
			<quad4 id="84">77,109,108,76</quad4>
			<quad4 id="85">109,141,140,108</quad4>
			<quad4 id="86">141,173,172,140</quad4>
			<quad4 id="87">173,205,204,172</quad4>
			<quad4 id="88">205,237,236,204</quad4>
			<tri3 id="89">1,14,13</tri3>
			<quad4 id="90">14,46,45,13</quad4>
			<quad4 id="91">46,78,77,45</quad4>
			<quad4 id="92">78,110,109,77</quad4>
			<quad4 id="93">110,142,141,109</quad4>
			<quad4 id="94">142,174,173,141</quad4>
			<quad4 id="95">174,206,205,173</quad4>
			<quad4 id="96">206,238,237,205</quad4>
			<tri3 id="97">1,15,14</tri3>
			<quad4 id="98">15,47,46,14</quad4>
			<quad4 id="99">47,79,78,46</quad4>
			<quad4 id="100">79,111,110,78</quad4>
			<quad4 id="101">111,143,142,110</quad4>
			<quad4 id="102">143,175,174,142</quad4>
			<quad4 id="103">175,207,206,174</quad4>
			<quad4 id="104">207,239,238,206</quad4>
			<tri3 id="105">1,16,15</tri3>
			<quad4 id="106">16,48,47,15</quad4>
			<quad4 id="107">48,80,79,47</quad4>
			<quad4 id="108">80,112,111,79</quad4>
			<quad4 id="109">112,144,143,111</quad4>
			<quad4 id="110">144,176,175,143</quad4>
			<quad4 id="111">176,208,207,175</quad4>
			<quad4 id="112">208,240,239,207</quad4>
			<tri3 id="113">1,17,16</tri3>
			<quad4 id="114">17,49,48,16</quad4>
			<quad4 id="115">49,81,80,48</quad4>
			<quad4 id="116">81,113,112,80</quad4>
			<quad4 id="117">113,145,144,112</quad4>
			<quad4 id="118">145,177,176,144</quad4>
			<quad4 id="119">177,209,208,176</quad4>
			<quad4 id="120">209,241,240,208</quad4>
			<tri3 id="121">1,18,17</tri3>
			<quad4 id="122">18,50,49,17</quad4>
			<quad4 id="123">50,82,81,49</quad4>
			<quad4 id="124">82,114,113,81</quad4>
			<quad4 id="125">114,146,145,113</quad4>
			<quad4 id="126">146,178,177,145</quad4>
			<quad4 id="127">178,210,209,177</quad4>
			<quad4 id="128">210,242,241,209</quad4>
			<tri3 id="129">1,19,18</tri3>
			<quad4 id="130">19,51,50,18</quad4>
			<quad4 id="131">51,83,82,50</quad4>
			<quad4 id="132">83,115,114,82</quad4>
			<quad4 id="133">115,147,146,114</quad4>
			<quad4 id="134">147,179,178,146</quad4>
			<quad4 id="135">179,211,210,178</quad4>
			<quad4 id="136">211,243,242,210</quad4>
			<tri3 id="137">1,20,19</tri3>
			<quad4 id="138">20,52,51,19</quad4>
			<quad4 id="139">52,84,83,51</quad4>
			<quad4 id="140">84,116,115,83</quad4>
			<quad4 id="141">116,148,147,115</quad4>
			<quad4 id="142">148,180,179,147</quad4>
			<quad4 id="143">180,212,211,179</quad4>
			<quad4 id="144">212,244,243,211</quad4>
			<tri3 id="145">1,21,20</tri3>
			<quad4 id="146">21,53,52,20</quad4>
			<quad4 id="147">53,85,84,52</quad4>
			<quad4 id="148">85,117,116,84</quad4>
			<quad4 id="149">117,149,148,116</quad4>
			<quad4 id="150">149,181,180,148</quad4>
			<quad4 id="151">181,213,212,180</quad4>
			<quad4 id="152">213,245,244,212</quad4>
			<tri3 id="153">1,22,21</tri3>
			<quad4 id="154">22,54,53,21</quad4>
			<quad4 id="155">54,86,85,53</quad4>
			<quad4 id="156">86,118,117,85</quad4>
			<quad4 id="157">118,150,149,117</quad4>
			<quad4 id="158">150,182,181,149</quad4>
			<quad4 id="159">182,214,213,181</quad4>
			<quad4 id="160">214,246,245,213</quad4>
			<tri3 id="161">1,23,22</tri3>
			<quad4 id="162">23,55,54,22</quad4>
			<quad4 id="163">55,87,86,54</quad4>
			<quad4 id="164">87,119,118,86</quad4>
			<quad4 id="165">119,151,150,118</quad4>
			<quad4 id="166">151,183,182,150</quad4>
			<quad4 id="167">183,215,214,182</quad4>
			<quad4 id="168">215,247,246,214</quad4>
			<tri3 id="169">1,24,23</tri3>
			<quad4 id="170">24,56,55,23</quad4>
			<quad4 id="171">56,88,87,55</quad4>
			<quad4 id="172">88,120,119,87</quad4>
			<quad4 id="173">120,152,151,119</quad4>
			<quad4 id="174">152,184,183,151</quad4>
			<quad4 id="175">184,216,215,183</quad4>
			<quad4 id="176">216,248,247,215</quad4>
			<tri3 id="177">1,25,24</tri3>
			<quad4 id="178">25,57,56,24</quad4>
			<quad4 id="179">57,89,88,56</quad4>
			<quad4 id="180">89,121,120,88</quad4>
			<quad4 id="181">121,153,152,120</quad4>
			<quad4 id="182">153,185,184,152</quad4>
			<quad4 id="183">185,217,216,184</quad4>
			<quad4 id="184">217,249,248,216</quad4>
			<tri3 id="185">1,26,25</tri3>
			<quad4 id="186">26,58,57,25</quad4>
			<quad4 id="187">58,90,89,57</quad4>
			<quad4 id="188">90,122,121,89</quad4>
			<quad4 id="189">122,154,153,121</quad4>
			<quad4 id="190">154,186,185,153</quad4>
			<quad4 id="191">186,218,217,185</quad4>
			<quad4 id="192">218,250,249,217</quad4>
			<tri3 id="193">1,27,26</tri3>
			<quad4 id="194">27,59,58,26</quad4>
			<quad4 id="195">59,91,90,58</quad4>
			<quad4 id="196">91,123,122,90</quad4>
			<quad4 id="197">123,155,154,122</quad4>
			<quad4 id="198">155,187,186,154</quad4>
			<quad4 id="199">187,219,218,186</quad4>
			<quad4 id="200">219,251,250,218</quad4>
			<tri3 id="201">1,28,27</tri3>
			<quad4 id="202">28,60,59,27</quad4>
			<quad4 id="203">60,92,91,59</quad4>
			<quad4 id="204">92,124,123,91</quad4>
			<quad4 id="205">124,156,155,123</quad4>
			<quad4 id="206">156,188,187,155</quad4>
			<quad4 id="207">188,220,219,187</quad4>
			<quad4 id="208">220,252,251,219</quad4>
			<tri3 id="209">1,29,28</tri3>
			<quad4 id="210">29,61,60,28</quad4>
			<quad4 id="211">61,93,92,60</quad4>
			<quad4 id="212">93,125,124,92</quad4>
			<quad4 id="213">125,157,156,124</quad4>
			<quad4 id="214">157,189,188,156</quad4>
			<quad4 id="215">189,221,220,188</quad4>
			<quad4 id="216">221,253,252,220</quad4>
			<tri3 id="217">1,30,29</tri3>
			<quad4 id="218">30,62,61,29</quad4>
			<quad4 id="219">62,94,93,61</quad4>
			<quad4 id="220">94,126,125,93</quad4>
			<quad4 id="221">126,158,157,125</quad4>
			<quad4 id="222">158,190,189,157</quad4>
			<quad4 id="223">190,222,221,189</quad4>
			<quad4 id="224">222,254,253,221</quad4>
			<tri3 id="225">1,31,30</tri3>
			<quad4 id="226">31,63,62,30</quad4>
			<quad4 id="227">63,95,94,62</quad4>
			<quad4 id="228">95,127,126,94</quad4>
			<quad4 id="229">127,159,158,126</quad4>
			<quad4 id="230">159,191,190,158</quad4>
			<quad4 id="231">191,223,222,190</quad4>
			<quad4 id="232">223,255,254,222</quad4>
			<tri3 id="233">1,32,31</tri3>
			<quad4 id="234">32,64,63,31</quad4>
			<quad4 id="235">64,96,95,63</quad4>
			<quad4 id="236">96,128,127,95</quad4>
			<quad4 id="237">128,160,159,127</quad4>
			<quad4 id="238">160,192,191,159</quad4>
			<quad4 id="239">192,224,223,191</quad4>
			<quad4 id="240">224,256,255,223</quad4>
			<tri3 id="241">1,33,32</tri3>
			<quad4 id="242">33,65,64,32</quad4>
			<quad4 id="243">65,97,96,64</quad4>
			<quad4 id="244">97,129,128,96</quad4>
			<quad4 id="245">129,161,160,128</quad4>
			<quad4 id="246">161,193,192,160</quad4>
			<quad4 id="247">193,225,224,192</quad4>
			<quad4 id="248">225,257,256,224</quad4>
			<tri3 id="249">1,2,33</tri3>
			<quad4 id="250">2,34,65,33</quad4>
			<quad4 id="251">34,66,97,65</quad4>
			<quad4 id="252">66,98,129,97</quad4>
			<quad4 id="253">98,130,161,129</quad4>
			<quad4 id="254">130,162,193,161</quad4>
			<quad4 id="255">162,194,225,193</quad4>
			<quad4 id="256">194,226,257,225</quad4>
		</Surface>
		<Surface name="FluidRCR1">
			<tri3 id="1">258,259,260</tri3>
			<quad4 id="2">259,291,292,260</quad4>
			<quad4 id="3">291,323,324,292</quad4>
			<quad4 id="4">323,355,356,324</quad4>
			<quad4 id="5">355,387,388,356</quad4>
			<quad4 id="6">387,419,420,388</quad4>
			<quad4 id="7">419,451,452,420</quad4>
			<quad4 id="8">451,483,484,452</quad4>
			<tri3 id="9">258,260,261</tri3>
			<quad4 id="10">260,292,293,261</quad4>
			<quad4 id="11">292,324,325,293</quad4>
			<quad4 id="12">324,356,357,325</quad4>
			<quad4 id="13">356,388,389,357</quad4>
			<quad4 id="14">388,420,421,389</quad4>
			<quad4 id="15">420,452,453,421</quad4>
			<quad4 id="16">452,484,485,453</quad4>
			<tri3 id="17">258,261,262</tri3>
			<quad4 id="18">261,293,294,262</quad4>
			<quad4 id="19">293,325,326,294</quad4>
			<quad4 id="20">325,357,358,326</quad4>
			<quad4 id="21">357,389,390,358</quad4>
			<quad4 id="22">389,421,422,390</quad4>
			<quad4 id="23">421,453,454,422</quad4>
			<quad4 id="24">453,485,486,454</quad4>
			<tri3 id="25">258,262,263</tri3>
			<quad4 id="26">262,294,295,263</quad4>
			<quad4 id="27">294,326,327,295</quad4>
			<quad4 id="28">326,358,359,327</quad4>
			<quad4 id="29">358,390,391,359</quad4>
			<quad4 id="30">390,422,423,391</quad4>
			<quad4 id="31">422,454,455,423</quad4>
			<quad4 id="32">454,486,487,455</quad4>
			<tri3 id="33">258,263,264</tri3>
			<quad4 id="34">263,295,296,264</quad4>
			<quad4 id="35">295,327,328,296</quad4>
			<quad4 id="36">327,359,360,328</quad4>
			<quad4 id="37">359,391,392,360</quad4>
			<quad4 id="38">391,423,424,392</quad4>
			<quad4 id="39">423,455,456,424</quad4>
			<quad4 id="40">455,487,488,456</quad4>
			<tri3 id="41">258,264,265</tri3>
			<quad4 id="42">264,296,297,265</quad4>
			<quad4 id="43">296,328,329,297</quad4>
			<quad4 id="44">328,360,361,329</quad4>
			<quad4 id="45">360,392,393,361</quad4>
			<quad4 id="46">392,424,425,393</quad4>
			<quad4 id="47">424,456,457,425</quad4>
			<quad4 id="48">456,488,489,457</quad4>
			<tri3 id="49">258,265,266</tri3>
			<quad4 id="50">265,297,298,266</quad4>
			<quad4 id="51">297,329,330,298</quad4>
			<quad4 id="52">329,361,362,330</quad4>
			<quad4 id="53">361,393,394,362</quad4>
			<quad4 id="54">393,425,426,394</quad4>
			<quad4 id="55">425,457,458,426</quad4>
			<quad4 id="56">457,489,490,458</quad4>
			<tri3 id="57">258,266,267</tri3>
			<quad4 id="58">266,298,299,267</quad4>
			<quad4 id="59">298,330,331,299</quad4>
			<quad4 id="60">330,362,363,331</quad4>
			<quad4 id="61">362,394,395,363</quad4>
			<quad4 id="62">394,426,427,395</quad4>
			<quad4 id="63">426,458,459,427</quad4>
			<quad4 id="64">458,490,491,459</quad4>
			<tri3 id="65">258,267,268</tri3>
			<quad4 id="66">267,299,300,268</quad4>
			<quad4 id="67">299,331,332,300</quad4>
			<quad4 id="68">331,363,364,332</quad4>
			<quad4 id="69">363,395,396,364</quad4>
			<quad4 id="70">395,427,428,396</quad4>
			<quad4 id="71">427,459,460,428</quad4>
			<quad4 id="72">459,491,492,460</quad4>
			<tri3 id="73">258,268,269</tri3>
			<quad4 id="74">268,300,301,269</quad4>
			<quad4 id="75">300,332,333,301</quad4>
			<quad4 id="76">332,364,365,333</quad4>
			<quad4 id="77">364,396,397,365</quad4>
			<quad4 id="78">396,428,429,397</quad4>
			<quad4 id="79">428,460,461,429</quad4>
			<quad4 id="80">460,492,493,461</quad4>
			<tri3 id="81">258,269,270</tri3>
			<quad4 id="82">269,301,302,270</quad4>
			<quad4 id="83">301,333,334,302</quad4>
			<quad4 id="84">333,365,366,334</quad4>
			<quad4 id="85">365,397,398,366</quad4>
			<quad4 id="86">397,429,430,398</quad4>
			<quad4 id="87">429,461,462,430</quad4>
			<quad4 id="88">461,493,494,462</quad4>
			<tri3 id="89">258,270,271</tri3>
			<quad4 id="90">270,302,303,271</quad4>
			<quad4 id="91">302,334,335,303</quad4>
			<quad4 id="92">334,366,367,335</quad4>
			<quad4 id="93">366,398,399,367</quad4>
			<quad4 id="94">398,430,431,399</quad4>
			<quad4 id="95">430,462,463,431</quad4>
			<quad4 id="96">462,494,495,463</quad4>
			<tri3 id="97">258,271,272</tri3>
			<quad4 id="98">271,303,304,272</quad4>
			<quad4 id="99">303,335,336,304</quad4>
			<quad4 id="100">335,367,368,336</quad4>
			<quad4 id="101">367,399,400,368</quad4>
			<quad4 id="102">399,431,432,400</quad4>
			<quad4 id="103">431,463,464,432</quad4>
			<quad4 id="104">463,495,496,464</quad4>
			<tri3 id="105">258,272,273</tri3>
			<quad4 id="106">272,304,305,273</quad4>
			<quad4 id="107">304,336,337,305</quad4>
			<quad4 id="108">336,368,369,337</quad4>
			<quad4 id="109">368,400,401,369</quad4>
			<quad4 id="110">400,432,433,401</quad4>
			<quad4 id="111">432,464,465,433</quad4>
			<quad4 id="112">464,496,497,465</quad4>
			<tri3 id="113">258,273,274</tri3>
			<quad4 id="114">273,305,306,274</quad4>
			<quad4 id="115">305,337,338,306</quad4>
			<quad4 id="116">337,369,370,338</quad4>
			<quad4 id="117">369,401,402,370</quad4>
			<quad4 id="118">401,433,434,402</quad4>
			<quad4 id="119">433,465,466,434</quad4>
			<quad4 id="120">465,497,498,466</quad4>
			<tri3 id="121">258,274,275</tri3>
			<quad4 id="122">274,306,307,275</quad4>
			<quad4 id="123">306,338,339,307</quad4>
			<quad4 id="124">338,370,371,339</quad4>
			<quad4 id="125">370,402,403,371</quad4>
			<quad4 id="126">402,434,435,403</quad4>
			<quad4 id="127">434,466,467,435</quad4>
			<quad4 id="128">466,498,499,467</quad4>
			<tri3 id="129">258,275,276</tri3>
			<quad4 id="130">275,307,308,276</quad4>
			<quad4 id="131">307,339,340,308</quad4>
			<quad4 id="132">339,371,372,340</quad4>
			<quad4 id="133">371,403,404,372</quad4>
			<quad4 id="134">403,435,436,404</quad4>
			<quad4 id="135">435,467,468,436</quad4>
			<quad4 id="136">467,499,500,468</quad4>
			<tri3 id="137">258,276,277</tri3>
			<quad4 id="138">276,308,309,277</quad4>
			<quad4 id="139">308,340,341,309</quad4>
			<quad4 id="140">340,372,373,341</quad4>
			<quad4 id="141">372,404,405,373</quad4>
			<quad4 id="142">404,436,437,405</quad4>
			<quad4 id="143">436,468,469,437</quad4>
			<quad4 id="144">468,500,501,469</quad4>
			<tri3 id="145">258,277,278</tri3>
			<quad4 id="146">277,309,310,278</quad4>
			<quad4 id="147">309,341,342,310</quad4>
			<quad4 id="148">341,373,374,342</quad4>
			<quad4 id="149">373,405,406,374</quad4>
			<quad4 id="150">405,437,438,406</quad4>
			<quad4 id="151">437,469,470,438</quad4>
			<quad4 id="152">469,501,502,470</quad4>
			<tri3 id="153">258,278,279</tri3>
			<quad4 id="154">278,310,311,279</quad4>
			<quad4 id="155">310,342,343,311</quad4>
			<quad4 id="156">342,374,375,343</quad4>
			<quad4 id="157">374,406,407,375</quad4>
			<quad4 id="158">406,438,439,407</quad4>
			<quad4 id="159">438,470,471,439</quad4>
			<quad4 id="160">470,502,503,471</quad4>
			<tri3 id="161">258,279,280</tri3>
			<quad4 id="162">279,311,312,280</quad4>
			<quad4 id="163">311,343,344,312</quad4>
			<quad4 id="164">343,375,376,344</quad4>
			<quad4 id="165">375,407,408,376</quad4>
			<quad4 id="166">407,439,440,408</quad4>
			<quad4 id="167">439,471,472,440</quad4>
			<quad4 id="168">471,503,504,472</quad4>
			<tri3 id="169">258,280,281</tri3>
			<quad4 id="170">280,312,313,281</quad4>
			<quad4 id="171">312,344,345,313</quad4>
			<quad4 id="172">344,376,377,345</quad4>
			<quad4 id="173">376,408,409,377</quad4>
			<quad4 id="174">408,440,441,409</quad4>
			<quad4 id="175">440,472,473,441</quad4>
			<quad4 id="176">472,504,505,473</quad4>
			<tri3 id="177">258,281,282</tri3>
			<quad4 id="178">281,313,314,282</quad4>
			<quad4 id="179">313,345,346,314</quad4>
			<quad4 id="180">345,377,378,346</quad4>
			<quad4 id="181">377,409,410,378</quad4>
			<quad4 id="182">409,441,442,410</quad4>
			<quad4 id="183">441,473,474,442</quad4>
			<quad4 id="184">473,505,506,474</quad4>
			<tri3 id="185">258,282,283</tri3>
			<quad4 id="186">282,314,315,283</quad4>
			<quad4 id="187">314,346,347,315</quad4>
			<quad4 id="188">346,378,379,347</quad4>
			<quad4 id="189">378,410,411,379</quad4>
			<quad4 id="190">410,442,443,411</quad4>
			<quad4 id="191">442,474,475,443</quad4>
			<quad4 id="192">474,506,507,475</quad4>
			<tri3 id="193">258,283,284</tri3>
			<quad4 id="194">283,315,316,284</quad4>
			<quad4 id="195">315,347,348,316</quad4>
			<quad4 id="196">347,379,380,348</quad4>
			<quad4 id="197">379,411,412,380</quad4>
			<quad4 id="198">411,443,444,412</quad4>
			<quad4 id="199">443,475,476,444</quad4>
			<quad4 id="200">475,507,508,476</quad4>
			<tri3 id="201">258,284,285</tri3>
			<quad4 id="202">284,316,317,285</quad4>
			<quad4 id="203">316,348,349,317</quad4>
			<quad4 id="204">348,380,381,349</quad4>
			<quad4 id="205">380,412,413,381</quad4>
			<quad4 id="206">412,444,445,413</quad4>
			<quad4 id="207">444,476,477,445</quad4>
			<quad4 id="208">476,508,509,477</quad4>
			<tri3 id="209">258,285,286</tri3>
			<quad4 id="210">285,317,318,286</quad4>
			<quad4 id="211">317,349,350,318</quad4>
			<quad4 id="212">349,381,382,350</quad4>
			<quad4 id="213">381,413,414,382</quad4>
			<quad4 id="214">413,445,446,414</quad4>
			<quad4 id="215">445,477,478,446</quad4>
			<quad4 id="216">477,509,510,478</quad4>
			<tri3 id="217">258,286,287</tri3>
			<quad4 id="218">286,318,319,287</quad4>
			<quad4 id="219">318,350,351,319</quad4>
			<quad4 id="220">350,382,383,351</quad4>
			<quad4 id="221">382,414,415,383</quad4>
			<quad4 id="222">414,446,447,415</quad4>
			<quad4 id="223">446,478,479,447</quad4>
			<quad4 id="224">478,510,511,479</quad4>
			<tri3 id="225">258,287,288</tri3>
			<quad4 id="226">287,319,320,288</quad4>
			<quad4 id="227">319,351,352,320</quad4>
			<quad4 id="228">351,383,384,352</quad4>
			<quad4 id="229">383,415,416,384</quad4>
			<quad4 id="230">415,447,448,416</quad4>
			<quad4 id="231">447,479,480,448</quad4>
			<quad4 id="232">479,511,512,480</quad4>
			<tri3 id="233">258,288,289</tri3>
			<quad4 id="234">288,320,321,289</quad4>
			<quad4 id="235">320,352,353,321</quad4>
			<quad4 id="236">352,384,385,353</quad4>
			<quad4 id="237">384,416,417,385</quad4>
			<quad4 id="238">416,448,449,417</quad4>
			<quad4 id="239">448,480,481,449</quad4>
			<quad4 id="240">480,512,513,481</quad4>
			<tri3 id="241">258,289,290</tri3>
			<quad4 id="242">289,321,322,290</quad4>
			<quad4 id="243">321,353,354,322</quad4>
			<quad4 id="244">353,385,386,354</quad4>
			<quad4 id="245">385,417,418,386</quad4>
			<quad4 id="246">417,449,450,418</quad4>
			<quad4 id="247">449,481,482,450</quad4>
			<quad4 id="248">481,513,514,482</quad4>
			<tri3 id="249">258,290,259</tri3>
			<quad4 id="250">290,322,291,259</quad4>
			<quad4 id="251">322,354,323,291</quad4>
			<quad4 id="252">354,386,355,323</quad4>
			<quad4 id="253">386,418,387,355</quad4>
			<quad4 id="254">418,450,419,387</quad4>
			<quad4 id="255">450,482,451,419</quad4>
			<quad4 id="256">482,514,483,451</quad4>
		</Surface>
		<Surface name="Outlet">
			<tri3 id="1">258,259,260</tri3>
			<quad4 id="2">259,291,292,260</quad4>
			<quad4 id="3">291,323,324,292</quad4>
			<quad4 id="4">323,355,356,324</quad4>
			<quad4 id="5">355,387,388,356</quad4>
			<quad4 id="6">387,419,420,388</quad4>
			<quad4 id="7">419,451,452,420</quad4>
			<quad4 id="8">451,483,484,452</quad4>
			<tri3 id="9">258,260,261</tri3>
			<quad4 id="10">260,292,293,261</quad4>
			<quad4 id="11">292,324,325,293</quad4>
			<quad4 id="12">324,356,357,325</quad4>
			<quad4 id="13">356,388,389,357</quad4>
			<quad4 id="14">388,420,421,389</quad4>
			<quad4 id="15">420,452,453,421</quad4>
			<quad4 id="16">452,484,485,453</quad4>
			<tri3 id="17">258,261,262</tri3>
			<quad4 id="18">261,293,294,262</quad4>
			<quad4 id="19">293,325,326,294</quad4>
			<quad4 id="20">325,357,358,326</quad4>
			<quad4 id="21">357,389,390,358</quad4>
			<quad4 id="22">389,421,422,390</quad4>
			<quad4 id="23">421,453,454,422</quad4>
			<quad4 id="24">453,485,486,454</quad4>
			<tri3 id="25">258,262,263</tri3>
			<quad4 id="26">262,294,295,263</quad4>
			<quad4 id="27">294,326,327,295</quad4>
			<quad4 id="28">326,358,359,327</quad4>
			<quad4 id="29">358,390,391,359</quad4>
			<quad4 id="30">390,422,423,391</quad4>
			<quad4 id="31">422,454,455,423</quad4>
			<quad4 id="32">454,486,487,455</quad4>
			<tri3 id="33">258,263,264</tri3>
			<quad4 id="34">263,295,296,264</quad4>
			<quad4 id="35">295,327,328,296</quad4>
			<quad4 id="36">327,359,360,328</quad4>
			<quad4 id="37">359,391,392,360</quad4>
			<quad4 id="38">391,423,424,392</quad4>
			<quad4 id="39">423,455,456,424</quad4>
			<quad4 id="40">455,487,488,456</quad4>
			<tri3 id="41">258,264,265</tri3>
			<quad4 id="42">264,296,297,265</quad4>
			<quad4 id="43">296,328,329,297</quad4>
			<quad4 id="44">328,360,361,329</quad4>
			<quad4 id="45">360,392,393,361</quad4>
			<quad4 id="46">392,424,425,393</quad4>
			<quad4 id="47">424,456,457,425</quad4>
			<quad4 id="48">456,488,489,457</quad4>
			<tri3 id="49">258,265,266</tri3>
			<quad4 id="50">265,297,298,266</quad4>
			<quad4 id="51">297,329,330,298</quad4>
			<quad4 id="52">329,361,362,330</quad4>
			<quad4 id="53">361,393,394,362</quad4>
			<quad4 id="54">393,425,426,394</quad4>
			<quad4 id="55">425,457,458,426</quad4>
			<quad4 id="56">457,489,490,458</quad4>
			<tri3 id="57">258,266,267</tri3>
			<quad4 id="58">266,298,299,267</quad4>
			<quad4 id="59">298,330,331,299</quad4>
			<quad4 id="60">330,362,363,331</quad4>
			<quad4 id="61">362,394,395,363</quad4>
			<quad4 id="62">394,426,427,395</quad4>
			<quad4 id="63">426,458,459,427</quad4>
			<quad4 id="64">458,490,491,459</quad4>
			<tri3 id="65">258,267,268</tri3>
			<quad4 id="66">267,299,300,268</quad4>
			<quad4 id="67">299,331,332,300</quad4>
			<quad4 id="68">331,363,364,332</quad4>
			<quad4 id="69">363,395,396,364</quad4>
			<quad4 id="70">395,427,428,396</quad4>
			<quad4 id="71">427,459,460,428</quad4>
			<quad4 id="72">459,491,492,460</quad4>
			<tri3 id="73">258,268,269</tri3>
			<quad4 id="74">268,300,301,269</quad4>
			<quad4 id="75">300,332,333,301</quad4>
			<quad4 id="76">332,364,365,333</quad4>
			<quad4 id="77">364,396,397,365</quad4>
			<quad4 id="78">396,428,429,397</quad4>
			<quad4 id="79">428,460,461,429</quad4>
			<quad4 id="80">460,492,493,461</quad4>
			<tri3 id="81">258,269,270</tri3>
			<quad4 id="82">269,301,302,270</quad4>
			<quad4 id="83">301,333,334,302</quad4>
			<quad4 id="84">333,365,366,334</quad4>
			<quad4 id="85">365,397,398,366</quad4>
			<quad4 id="86">397,429,430,398</quad4>
			<quad4 id="87">429,461,462,430</quad4>
			<quad4 id="88">461,493,494,462</quad4>
			<tri3 id="89">258,270,271</tri3>
			<quad4 id="90">270,302,303,271</quad4>
			<quad4 id="91">302,334,335,303</quad4>
			<quad4 id="92">334,366,367,335</quad4>
			<quad4 id="93">366,398,399,367</quad4>
			<quad4 id="94">398,430,431,399</quad4>
			<quad4 id="95">430,462,463,431</quad4>
			<quad4 id="96">462,494,495,463</quad4>
			<tri3 id="97">258,271,272</tri3>
			<quad4 id="98">271,303,304,272</quad4>
			<quad4 id="99">303,335,336,304</quad4>
			<quad4 id="100">335,367,368,336</quad4>
			<quad4 id="101">367,399,400,368</quad4>
			<quad4 id="102">399,431,432,400</quad4>
			<quad4 id="103">431,463,464,432</quad4>
			<quad4 id="104">463,495,496,464</quad4>
			<tri3 id="105">258,272,273</tri3>
			<quad4 id="106">272,304,305,273</quad4>
			<quad4 id="107">304,336,337,305</quad4>
			<quad4 id="108">336,368,369,337</quad4>
			<quad4 id="109">368,400,401,369</quad4>
			<quad4 id="110">400,432,433,401</quad4>
			<quad4 id="111">432,464,465,433</quad4>
			<quad4 id="112">464,496,497,465</quad4>
			<tri3 id="113">258,273,274</tri3>
			<quad4 id="114">273,305,306,274</quad4>
			<quad4 id="115">305,337,338,306</quad4>
			<quad4 id="116">337,369,370,338</quad4>
			<quad4 id="117">369,401,402,370</quad4>
			<quad4 id="118">401,433,434,402</quad4>
			<quad4 id="119">433,465,466,434</quad4>
			<quad4 id="120">465,497,498,466</quad4>
			<tri3 id="121">258,274,275</tri3>
			<quad4 id="122">274,306,307,275</quad4>
			<quad4 id="123">306,338,339,307</quad4>
			<quad4 id="124">338,370,371,339</quad4>
			<quad4 id="125">370,402,403,371</quad4>
			<quad4 id="126">402,434,435,403</quad4>
			<quad4 id="127">434,466,467,435</quad4>
			<quad4 id="128">466,498,499,467</quad4>
			<tri3 id="129">258,275,276</tri3>
			<quad4 id="130">275,307,308,276</quad4>
			<quad4 id="131">307,339,340,308</quad4>
			<quad4 id="132">339,371,372,340</quad4>
			<quad4 id="133">371,403,404,372</quad4>
			<quad4 id="134">403,435,436,404</quad4>
			<quad4 id="135">435,467,468,436</quad4>
			<quad4 id="136">467,499,500,468</quad4>
			<tri3 id="137">258,276,277</tri3>
			<quad4 id="138">276,308,309,277</quad4>
			<quad4 id="139">308,340,341,309</quad4>
			<quad4 id="140">340,372,373,341</quad4>
			<quad4 id="141">372,404,405,373</quad4>
			<quad4 id="142">404,436,437,405</quad4>
			<quad4 id="143">436,468,469,437</quad4>
			<quad4 id="144">468,500,501,469</quad4>
			<tri3 id="145">258,277,278</tri3>
			<quad4 id="146">277,309,310,278</quad4>
			<quad4 id="147">309,341,342,310</quad4>
			<quad4 id="148">341,373,374,342</quad4>
			<quad4 id="149">373,405,406,374</quad4>
			<quad4 id="150">405,437,438,406</quad4>
			<quad4 id="151">437,469,470,438</quad4>
			<quad4 id="152">469,501,502,470</quad4>
			<tri3 id="153">258,278,279</tri3>
			<quad4 id="154">278,310,311,279</quad4>
			<quad4 id="155">310,342,343,311</quad4>
			<quad4 id="156">342,374,375,343</quad4>
			<quad4 id="157">374,406,407,375</quad4>
			<quad4 id="158">406,438,439,407</quad4>
			<quad4 id="159">438,470,471,439</quad4>
			<quad4 id="160">470,502,503,471</quad4>
			<tri3 id="161">258,279,280</tri3>
			<quad4 id="162">279,311,312,280</quad4>
			<quad4 id="163">311,343,344,312</quad4>
			<quad4 id="164">343,375,376,344</quad4>
			<quad4 id="165">375,407,408,376</quad4>
			<quad4 id="166">407,439,440,408</quad4>
			<quad4 id="167">439,471,472,440</quad4>
			<quad4 id="168">471,503,504,472</quad4>
			<tri3 id="169">258,280,281</tri3>
			<quad4 id="170">280,312,313,281</quad4>
			<quad4 id="171">312,344,345,313</quad4>
			<quad4 id="172">344,376,377,345</quad4>
			<quad4 id="173">376,408,409,377</quad4>
			<quad4 id="174">408,440,441,409</quad4>
			<quad4 id="175">440,472,473,441</quad4>
			<quad4 id="176">472,504,505,473</quad4>
			<tri3 id="177">258,281,282</tri3>
			<quad4 id="178">281,313,314,282</quad4>
			<quad4 id="179">313,345,346,314</quad4>
			<quad4 id="180">345,377,378,346</quad4>
			<quad4 id="181">377,409,410,378</quad4>
			<quad4 id="182">409,441,442,410</quad4>
			<quad4 id="183">441,473,474,442</quad4>
			<quad4 id="184">473,505,506,474</quad4>
			<tri3 id="185">258,282,283</tri3>
			<quad4 id="186">282,314,315,283</quad4>
			<quad4 id="187">314,346,347,315</quad4>
			<quad4 id="188">346,378,379,347</quad4>
			<quad4 id="189">378,410,411,379</quad4>
			<quad4 id="190">410,442,443,411</quad4>
			<quad4 id="191">442,474,475,443</quad4>
			<quad4 id="192">474,506,507,475</quad4>
			<tri3 id="193">258,283,284</tri3>
			<quad4 id="194">283,315,316,284</quad4>
			<quad4 id="195">315,347,348,316</quad4>
			<quad4 id="196">347,379,380,348</quad4>
			<quad4 id="197">379,411,412,380</quad4>
			<quad4 id="198">411,443,444,412</quad4>
			<quad4 id="199">443,475,476,444</quad4>
			<quad4 id="200">475,507,508,476</quad4>
			<tri3 id="201">258,284,285</tri3>
			<quad4 id="202">284,316,317,285</quad4>
			<quad4 id="203">316,348,349,317</quad4>
			<quad4 id="204">348,380,381,349</quad4>
			<quad4 id="205">380,412,413,381</quad4>
			<quad4 id="206">412,444,445,413</quad4>
			<quad4 id="207">444,476,477,445</quad4>
			<quad4 id="208">476,508,509,477</quad4>
			<tri3 id="209">258,285,286</tri3>
			<quad4 id="210">285,317,318,286</quad4>
			<quad4 id="211">317,349,350,318</quad4>
			<quad4 id="212">349,381,382,350</quad4>
			<quad4 id="213">381,413,414,382</quad4>
			<quad4 id="214">413,445,446,414</quad4>
			<quad4 id="215">445,477,478,446</quad4>
			<quad4 id="216">477,509,510,478</quad4>
			<tri3 id="217">258,286,287</tri3>
			<quad4 id="218">286,318,319,287</quad4>
			<quad4 id="219">318,350,351,319</quad4>
			<quad4 id="220">350,382,383,351</quad4>
			<quad4 id="221">382,414,415,383</quad4>
			<quad4 id="222">414,446,447,415</quad4>
			<quad4 id="223">446,478,479,447</quad4>
			<quad4 id="224">478,510,511,479</quad4>
			<tri3 id="225">258,287,288</tri3>
			<quad4 id="226">287,319,320,288</quad4>
			<quad4 id="227">319,351,352,320</quad4>
			<quad4 id="228">351,383,384,352</quad4>
			<quad4 id="229">383,415,416,384</quad4>
			<quad4 id="230">415,447,448,416</quad4>
			<quad4 id="231">447,479,480,448</quad4>
			<quad4 id="232">479,511,512,480</quad4>
			<tri3 id="233">258,288,289</tri3>
			<quad4 id="234">288,320,321,289</quad4>
			<quad4 id="235">320,352,353,321</quad4>
			<quad4 id="236">352,384,385,353</quad4>
			<quad4 id="237">384,416,417,385</quad4>
			<quad4 id="238">416,448,449,417</quad4>
			<quad4 id="239">448,480,481,449</quad4>
			<quad4 id="240">480,512,513,481</quad4>
			<tri3 id="241">258,289,290</tri3>
			<quad4 id="242">289,321,322,290</quad4>
			<quad4 id="243">321,353,354,322</quad4>
			<quad4 id="244">353,385,386,354</quad4>
			<quad4 id="245">385,417,418,386</quad4>
			<quad4 id="246">417,449,450,418</quad4>
			<quad4 id="247">449,481,482,450</quad4>
			<quad4 id="248">481,513,514,482</quad4>
			<tri3 id="249">258,290,259</tri3>
			<quad4 id="250">290,322,291,259</quad4>
			<quad4 id="251">322,354,323,291</quad4>
			<quad4 id="252">354,386,355,323</quad4>
			<quad4 id="253">386,418,387,355</quad4>
			<quad4 id="254">418,450,419,387</quad4>
			<quad4 id="255">450,482,451,419</quad4>
			<quad4 id="256">482,514,483,451</quad4>
		</Surface>
	</Mesh>
	<MeshDomains>
		<SolidDomain name="Part1" mat="Material1"/>
		<SolidDomain name="Part1__2" mat="Material1"/>
	</MeshDomains>
	<Boundary>
		<bc name="FixedFluidVelocity1" type="fix" node_set="@surface:FixedFluidVelocity1">
			<dofs>wx,wy,wz</dofs>
		</bc>
	</Boundary>
	<Loads>
		<surface_load name="FluidNormalVelocity1" type="fluid normal velocity" surface="FluidNormalVelocity1">
			<velocity lc="1">-1.273</velocity>
			<prescribe_nodal_velocities>1</prescribe_nodal_velocities>
			<parabolic>0</parabolic>
			<prescribe_rim_pressure>0</prescribe_rim_pressure>
		</surface_load>
		<surface_load name="FluidRCR1" type="fluid RCR" surface="FluidRCR1">
			<R>1</R>
			<Rd>10</Rd>
			<capacitance>0.5</capacitance>
			<pressure_offset>0</pressure_offset>
			<initial_pressure>0</initial_pressure>
		</surface_load>
	</Loads>
	<LoadData>
		<load_controller id="1" type="loadcurve">
			<interpolate>SMOOTH</interpolate>
			<extend>REPEAT</extend>
			<points>
				<point>0,0</point>
				<point>0.01,0.000986635785864</point>
				<point>0.02,0.00394264934276</point>
				<point>0.03,0.00885637463566</point>
				<point>0.04,0.0157084194357</point>
				<point>0.05,0.0244717418524</point>
				<point>0.06,0.0351117570559</point>
				<point>0.07,0.047586473767</point>
				<point>0.08,0.0618466599781</point>
				<point>0.09,0.077836037249</point>
				<point>0.1,0.0954915028125</point>
				<point>0.11,0.114743378612</point>
				<point>0.12,0.135515686289</point>
				<point>0.13,0.157726447036</point>
				<point>0.14,0.181288005126</point>
				<point>0.15,0.206107373854</point>
				<point>0.16,0.232086602511</point>
				<point>0.17,0.259123162949</point>
				<point>0.18,0.287110354217</point>
				<point>0.19,0.315937723658</point>
<!-- ... 81 like lines cut -->
			</points>
		</load_controller>
		<load_controller id="2" type="loadcurve">
			<interpolate>SMOOTH</interpolate>
			<points>
				<point>0,0</point>
				<point>1,1</point>
			</points>
		</load_controller>
		<load_controller id="3" type="loadcurve">
			<interpolate>SMOOTH</interpolate>
			<points>
				<point>0,0</point>
				<point>1,1</point>
			</points>
		</load_controller>
		<load_controller id="4" type="loadcurve">
			<interpolate>SMOOTH</interpolate>
			<points>
				<point>0,0</point>
				<point>1,1</point>
			</points>
		</load_controller>
		<load_controller id="5" type="loadcurve">
			<interpolate>SMOOTH</interpolate>
			<points>
				<point>0,0</point>
				<point>1,1</point>
			</points>
		</load_controller>
		<load_controller id="6" type="loadcurve">
			<interpolate>SMOOTH</interpolate>
			<points>
				<point>0,0</point>
				<point>1,1</point>
			</points>
		</load_controller>
	</LoadData>
	<Output>
		<plotfile type="febio">
			<var type="displacement"/>
			<var type="fluid acceleration"/>
			<var type="fluid dilatation"/>
			<var type="fluid mass flow rate" surface="Outlet"/>
			<var type="fluid pressure"/>
			<var type="fluid rate of deformation"/>
			<var type="fluid stress"/>
			<var type="fluid velocity"/>
			<var type="fluid volume ratio"/>
			<var type="fluid vorticity"/>
			<var type="nodal fluid velocity"/>
		</plotfile>
	</Output>
</febio_spec>
