<?xml version="1.0" encoding="ISO-8859-1"?>
<!--
Couette flow from shear motion of top face.
-->
<febio_spec version="3.0">
	<Module type="fluid-FSI"/>
	<Control>
		<analysis>DYNAMIC</analysis>
		<time_steps>250</time_steps>
		<step_size>0.02</step_size>
		<solver>
			<max_refs>5</max_refs>
			<max_ups>50</max_ups>
			<diverge_reform>0</diverge_reform>
			<reform_each_time_step>0</reform_each_time_step>
			<dtol>0.001</dtol>
			<vtol>0.001</vtol>
			<ftol>0.001</ftol>
			<etol>0.01</etol>
			<rtol>0.001</rtol>
			<lstol>0.9</lstol>
			<min_residual>1e-20</min_residual>
			<max_residual>1e+20</max_residual>
			<rhoi>0</rhoi>
			<qnmethod>BROYDEN</qnmethod>
			<symmetric_stiffness>0</symmetric_stiffness>
		</solver>
		<time_stepper>
			<dtmin>0.002</dtmin>
			<dtmax>0.02</dtmax>
			<max_retries>5</max_retries>
			<opt_iter>50</opt_iter>
		</time_stepper>
	</Control>
	<Globals>
		<Constants>
			<T>0</T>
			<R>0</R>
			<Fc>0</Fc>
		</Constants>
	</Globals>
	<Material>
		<material id="1" name="Material1" type="fluid-FSI">
			<fluid type="fluid">
				<density>1</density>
				<k>1e+09</k>
				<viscous type="Newtonian fluid">
					<mu>1</mu>
					<kappa>0</kappa>
				</viscous>
			</fluid>
			<solid type="neo-Hookean">
				<density>0</density>
				<E>1e-09</E>
				<v>0</v>
			</solid>
		</material>
	</Material>
	<Mesh>
		<Nodes name="Object01">
			<node id="1">-0.5,-0.5,0</node>
			<node id="2">-0.5,-0.5,0.1</node>
			<node id="3">-0.5,-0.4,0</node>
			<node id="4">-0.5,-0.4,0.1</node>
			<node id="5">-0.5,-0.3,0</node>
			<node id="6">-0.5,-0.3,0.1</node>
			<node id="7">-0.5,-0.2,0</node>
			<node id="8">-0.5,-0.2,0.1</node>
			<node id="9">-0.5,-0.1,0</node>
			<node id="10">-0.5,-0.1,0.1</node>
			<node id="11">-0.5,-2.7755576e-17,0</node>
			<node id="12">-0.5,-2.7755576e-17,0.1</node>
			<node id="13">-0.5,0.1,0</node>
			<node id="14">-0.5,0.1,0.1</node>
			<node id="15">-0.5,0.2,0</node>
			<node id="16">-0.5,0.2,0.1</node>
			<node id="17">-0.5,0.3,0</node>
			<node id="18">-0.5,0.3,0.1</node>
			<node id="19">-0.5,0.4,0</node>
			<node id="20">-0.5,0.4,0.1</node>
<!-- ... 222 like lines cut -->
		</Nodes>
		<Elements type="hex8" name="Part1">
			<elem id="1">1,23,25,3,2,24,26,4</elem>
			<elem id="2">3,25,27,5,4,26,28,6</elem>
			<elem id="3">5,27,29,7,6,28,30,8</elem>
			<elem id="4">7,29,31,9,8,30,32,10</elem>
			<elem id="5">9,31,33,11,10,32,34,12</elem>
			<elem id="6">11,33,35,13,12,34,36,14</elem>
			<elem id="7">13,35,37,15,14,36,38,16</elem>
			<elem id="8">15,37,39,17,16,38,40,18</elem>
			<elem id="9">17,39,41,19,18,40,42,20</elem>
			<elem id="10">19,41,43,21,20,42,44,22</elem>
			<elem id="11">23,45,47,25,24,46,48,26</elem>
			<elem id="12">25,47,49,27,26,48,50,28</elem>
			<elem id="13">27,49,51,29,28,50,52,30</elem>
			<elem id="14">29,51,53,31,30,52,54,32</elem>
			<elem id="15">31,53,55,33,32,54,56,34</elem>
			<elem id="16">33,55,57,35,34,56,58,36</elem>
			<elem id="17">35,57,59,37,36,58,60,38</elem>
			<elem id="18">37,59,61,39,38,60,62,40</elem>
			<elem id="19">39,61,63,41,40,62,64,42</elem>
			<elem id="20">41,63,65,43,42,64,66,44</elem>
<!-- ... 80 like lines cut -->
		</Elements>
		<NodeSet name="FixedDisplacement1">
			<n id="1"/>
			<n id="2"/>
			<n id="3"/>
			<n id="4"/>
			<n id="5"/>
			<n id="6"/>
			<n id="7"/>
			<n id="8"/>
			<n id="9"/>
			<n id="10"/>
			<n id="11"/>
			<n id="12"/>
			<n id="13"/>
			<n id="14"/>
			<n id="15"/>
			<n id="16"/>
			<n id="17"/>
			<n id="18"/>
			<n id="19"/>
			<n id="20"/>
<!-- ... 464 like lines cut -->
		</NodeSet>
		<NodeSet name="FixedDisplacement2">
			<n id="1"/>
			<n id="2"/>
			<n id="23"/>
			<n id="24"/>
			<n id="45"/>
			<n id="46"/>
			<n id="67"/>
			<n id="68"/>
			<n id="89"/>
			<n id="90"/>
			<n id="111"/>
			<n id="112"/>
			<n id="133"/>
			<n id="134"/>
			<n id="155"/>
			<n id="156"/>
			<n id="177"/>
			<n id="178"/>
			<n id="199"/>
			<n id="200"/>
			<n id="221"/>
			<n id="222"/>
		</NodeSet>
		<NodeSet name="FixedDisplacement3">
			<n id="1"/>
			<n id="2"/>
			<n id="3"/>
			<n id="4"/>
			<n id="5"/>
			<n id="6"/>
			<n id="7"/>
			<n id="8"/>
			<n id="9"/>
			<n id="10"/>
			<n id="11"/>
			<n id="12"/>
			<n id="13"/>
			<n id="14"/>
			<n id="15"/>
			<n id="16"/>
			<n id="17"/>
			<n id="18"/>
			<n id="19"/>
			<n id="20"/>
<!-- ... 464 like lines cut -->
		</NodeSet>
		<NodeSet name="FixedFluidVelocity1">
			<n id="1"/>
			<n id="2"/>
			<n id="3"/>
			<n id="4"/>
			<n id="5"/>
			<n id="6"/>
			<n id="7"/>
			<n id="8"/>
			<n id="9"/>
			<n id="10"/>
			<n id="11"/>
			<n id="12"/>
			<n id="13"/>
			<n id="14"/>
			<n id="15"/>
			<n id="16"/>
			<n id="17"/>
			<n id="18"/>
			<n id="19"/>
			<n id="20"/>
<!-- ... 464 like lines cut -->
		</NodeSet>
		<NodeSet name="FixedFluidVelocity2">
			<n id="1"/>
			<n id="2"/>
			<n id="21"/>
			<n id="22"/>
			<n id="23"/>
			<n id="24"/>
			<n id="43"/>
			<n id="44"/>
			<n id="45"/>
			<n id="46"/>
			<n id="65"/>
			<n id="66"/>
			<n id="67"/>
			<n id="68"/>
			<n id="87"/>
			<n id="88"/>
			<n id="89"/>
			<n id="90"/>
			<n id="109"/>
			<n id="110"/>
<!-- ... 68 like lines cut -->
		</NodeSet>
		<NodeSet name="FixedFluidVelocity3">
			<n id="1"/>
			<n id="2"/>
			<n id="3"/>
			<n id="4"/>
			<n id="5"/>
			<n id="6"/>
			<n id="7"/>
			<n id="8"/>
			<n id="9"/>
			<n id="10"/>
			<n id="11"/>
			<n id="12"/>
			<n id="13"/>
			<n id="14"/>
			<n id="15"/>
			<n id="16"/>
			<n id="17"/>
			<n id="18"/>
			<n id="19"/>
			<n id="20"/>
<!-- ... 464 like lines cut -->
		</NodeSet>
		<NodeSet name="FixedFluidDilatation1">
			<n id="1"/>
			<n id="2"/>
			<n id="3"/>
			<n id="4"/>
			<n id="5"/>
			<n id="6"/>
			<n id="7"/>
			<n id="8"/>
			<n id="9"/>
			<n id="10"/>
			<n id="11"/>
			<n id="12"/>
			<n id="13"/>
			<n id="14"/>
			<n id="15"/>
			<n id="16"/>
			<n id="17"/>
			<n id="18"/>
			<n id="19"/>
			<n id="20"/>
<!-- ... 68 like lines cut -->
		</NodeSet>
		<NodeSet name="PrescribedDisplacement1">
			<n id="21"/>
			<n id="22"/>
			<n id="43"/>
			<n id="44"/>
			<n id="65"/>
			<n id="66"/>
			<n id="87"/>
			<n id="88"/>
			<n id="109"/>
			<n id="110"/>
			<n id="131"/>
			<n id="132"/>
			<n id="153"/>
			<n id="154"/>
			<n id="175"/>
			<n id="176"/>
			<n id="197"/>
			<n id="198"/>
			<n id="219"/>
			<n id="220"/>
			<n id="241"/>
			<n id="242"/>
		</NodeSet>
	</Mesh>
	<MeshDomains>
		<SolidDomain name="Part1" mat="Material1"/>
	</MeshDomains>
	<Boundary>
		<bc name="FixedDisplacement01" type="fix" node_set="FixedDisplacement1">
			<dofs>z</dofs>
		</bc>
		<bc name="FixedDisplacement02" type="fix" node_set="FixedDisplacement2">
			<dofs>x,y</dofs>
		</bc>
		<bc name="FixedDisplacement03" type="fix" node_set="FixedDisplacement3">
			<dofs>y</dofs>
		</bc>
		<bc name="FixedFluidVelocity01" type="fix" node_set="FixedFluidVelocity1">
			<dofs>wz</dofs>
		</bc>
		<bc name="FixedFluidVelocity02" type="fix" node_set="FixedFluidVelocity2">
			<dofs>wx,wy</dofs>
		</bc>
		<bc name="FixedFluidVelocity03" type="fix" node_set="FixedFluidVelocity3">
			<dofs>wy</dofs>
		</bc>
		<bc name="FixedFluidDilatation01" type="fix" node_set="FixedFluidDilatation1">
			<dofs>ef</dofs>
		</bc>
		<bc name="PrescribedDisplacement1" type="prescribe" node_set="PrescribedDisplacement1">
			<dof>x</dof>
			<scale lc="1">1</scale>
			<relative>0</relative>
		</bc>
	</Boundary>
	<LoadData>
		<load_controller id="1" type="loadcurve">
			<interpolate>SMOOTH</interpolate>
			<extend>EXTRAPOLATE</extend>
			<points>
				<point>0,0</point>
				<point>1,1</point>
			</points>
		</load_controller>
	</LoadData>
	<Output>
		<plotfile type="febio">
			<var type="acceleration"/>
			<var type="displacement"/>
			<var type="Lagrange strain"/>
			<var type="stress"/>
			<var type="velocity"/>
			<var type="fluid pressure"/>
			<var type="fluid acceleration"/>
			<var type="fluid density"/>
			<var type="fluid dilatation"/>
			<var type="fluid rate of deformation"/>
			<var type="fluid shear viscosity"/>
			<var type="fluid stress"/>
			<var type="fluid velocity"/>
			<var type="fluid volume ratio"/>
			<var type="fluid vorticity"/>
			<var type="nodal fluid velocity"/>
			<var type="nodal fluid flux"/>
			<var type="relative fluid velocity"/>
		</plotfile>
	</Output>
</febio_spec>
