<?xml version="1.0" encoding="ISO-8859-1"?>
<febio_spec version="2.5">
	<Module type="solid"/>
	<Control>
		<time_steps>50</time_steps>
		<step_size>0.02</step_size>
		<max_refs>15</max_refs>
		<max_ups>10</max_ups>
		<diverge_reform>1</diverge_reform>
		<reform_each_time_step>1</reform_each_time_step>
		<dtol>0.001</dtol>
		<etol>0.01</etol>
		<rtol>0</rtol>
		<lstol>0.9</lstol>
		<min_residual>1e-020</min_residual>
		<qnmethod>0</qnmethod>
		<time_stepper>
			<dtmin>0.01</dtmin>
			<dtmax>0.1</dtmax>
			<max_retries>5</max_retries>
			<opt_iter>10</opt_iter>
		</time_stepper>
		<analysis type="static"/>
	</Control>
	<Globals>
		<Constants>
			<T>0</T>
			<R>0</R>
			<Fc>0</Fc>
		</Constants>
	</Globals>
	<Material>
		<material id="1" name="Material 1" type="viscoelastic">
			<g1>0.9</g1>
			<g2>0</g2>
			<g3>0</g3>
			<g4>0</g4>
			<g5>0</g5>
			<g6>0</g6>
			<t1>0.01</t1>
			<t2>1</t2>
			<t3>1</t3>
			<t4>1</t4>
			<t5>1</t5>
			<t6>1</t6>
			<elastic name="Material 2" type="neo-Hookean">
				<density>1</density>
				<E>1</E>
				<v>0.4</v>
			</elastic>
		</material>
	</Material>
	<Geometry>
		<Nodes name="ma06">
			<node id="1">-1.0000000e+000,-5.0000000e-001, 0.0000000e+000</node>
			<node id="2">-1.0000000e+000,-5.0000000e-001, 2.0000000e-001</node>
			<node id="3">-1.0000000e+000,-5.0000000e-001, 4.0000000e-001</node>
			<node id="4">-1.0000000e+000,-5.0000000e-001, 6.0000000e-001</node>
			<node id="5">-1.0000000e+000,-5.0000000e-001, 8.0000000e-001</node>
			<node id="6">-1.0000000e+000,-5.0000000e-001, 1.0000000e+000</node>
			<node id="7">-1.0000000e+000,-3.0000000e-001, 0.0000000e+000</node>
			<node id="8">-1.0000000e+000,-3.0000000e-001, 2.0000000e-001</node>
			<node id="9">-1.0000000e+000,-3.0000000e-001, 4.0000000e-001</node>
			<node id="10">-1.0000000e+000,-3.0000000e-001, 6.0000000e-001</node>
			<node id="11">-1.0000000e+000,-3.0000000e-001, 8.0000000e-001</node>
			<node id="12">-1.0000000e+000,-3.0000000e-001, 1.0000000e+000</node>
			<node id="13">-1.0000000e+000,-1.0000000e-001, 0.0000000e+000</node>
			<node id="14">-1.0000000e+000,-1.0000000e-001, 2.0000000e-001</node>
			<node id="15">-1.0000000e+000,-1.0000000e-001, 4.0000000e-001</node>
			<node id="16">-1.0000000e+000,-1.0000000e-001, 6.0000000e-001</node>
			<node id="17">-1.0000000e+000,-1.0000000e-001, 8.0000000e-001</node>
			<node id="18">-1.0000000e+000,-1.0000000e-001, 1.0000000e+000</node>
			<node id="19">-1.0000000e+000, 1.0000000e-001, 0.0000000e+000</node>
			<node id="20">-1.0000000e+000, 1.0000000e-001, 2.0000000e-001</node>
<!-- ... 376 like lines cut -->
		</Nodes>
		<Elements type="hex8" mat="1" name="Part6">
			<elem id="1">     1,    37,    43,     7,     2,    38,    44,     8</elem>
			<elem id="2">     2,    38,    44,     8,     3,    39,    45,     9</elem>
			<elem id="3">     3,    39,    45,     9,     4,    40,    46,    10</elem>
			<elem id="4">     4,    40,    46,    10,     5,    41,    47,    11</elem>
			<elem id="5">     5,    41,    47,    11,     6,    42,    48,    12</elem>
			<elem id="6">     7,    43,    49,    13,     8,    44,    50,    14</elem>
			<elem id="7">     8,    44,    50,    14,     9,    45,    51,    15</elem>
			<elem id="8">     9,    45,    51,    15,    10,    46,    52,    16</elem>
			<elem id="9">    10,    46,    52,    16,    11,    47,    53,    17</elem>
			<elem id="10">    11,    47,    53,    17,    12,    48,    54,    18</elem>
			<elem id="11">    13,    49,    55,    19,    14,    50,    56,    20</elem>
			<elem id="12">    14,    50,    56,    20,    15,    51,    57,    21</elem>
			<elem id="13">    15,    51,    57,    21,    16,    52,    58,    22</elem>
			<elem id="14">    16,    52,    58,    22,    17,    53,    59,    23</elem>
			<elem id="15">    17,    53,    59,    23,    18,    54,    60,    24</elem>
			<elem id="16">    19,    55,    61,    25,    20,    56,    62,    26</elem>
			<elem id="17">    20,    56,    62,    26,    21,    57,    63,    27</elem>
			<elem id="18">    21,    57,    63,    27,    22,    58,    64,    28</elem>
			<elem id="19">    22,    58,    64,    28,    23,    59,    65,    29</elem>
			<elem id="20">    23,    59,    65,    29,    24,    60,    66,    30</elem>
<!-- ... 230 like lines cut -->
		</Elements>
		<NodeSet name="FixedDisplacement01">
			<node id="1"/>
			<node id="2"/>
			<node id="3"/>
			<node id="4"/>
			<node id="5"/>
			<node id="6"/>
			<node id="7"/>
			<node id="8"/>
			<node id="9"/>
			<node id="10"/>
			<node id="11"/>
			<node id="12"/>
			<node id="13"/>
			<node id="14"/>
			<node id="15"/>
			<node id="16"/>
			<node id="17"/>
			<node id="18"/>
			<node id="19"/>
			<node id="20"/>
<!-- ... 52 like lines cut -->
		</NodeSet>
		<NodeSet name="FixedDisplacement02">
			<node id="1"/>
			<node id="2"/>
			<node id="3"/>
			<node id="4"/>
			<node id="5"/>
			<node id="6"/>
			<node id="7"/>
			<node id="8"/>
			<node id="9"/>
			<node id="10"/>
			<node id="11"/>
			<node id="12"/>
			<node id="13"/>
			<node id="14"/>
			<node id="15"/>
			<node id="16"/>
			<node id="17"/>
			<node id="18"/>
			<node id="19"/>
			<node id="20"/>
<!-- ... 52 like lines cut -->
		</NodeSet>
		<NodeSet name="FixedDisplacement03">
			<node id="1"/>
			<node id="2"/>
			<node id="3"/>
			<node id="4"/>
			<node id="5"/>
			<node id="6"/>
			<node id="7"/>
			<node id="8"/>
			<node id="9"/>
			<node id="10"/>
			<node id="11"/>
			<node id="12"/>
			<node id="13"/>
			<node id="14"/>
			<node id="15"/>
			<node id="16"/>
			<node id="17"/>
			<node id="18"/>
			<node id="19"/>
			<node id="20"/>
<!-- ... 16 like lines cut -->
		</NodeSet>
		<Surface name="surface01">
			<quad4 id="1">   361,   367,   368,   362</quad4>
			<quad4 id="2">   362,   368,   369,   363</quad4>
			<quad4 id="3">   363,   369,   370,   364</quad4>
			<quad4 id="4">   364,   370,   371,   365</quad4>
			<quad4 id="5">   365,   371,   372,   366</quad4>
			<quad4 id="6">   367,   373,   374,   368</quad4>
			<quad4 id="7">   368,   374,   375,   369</quad4>
			<quad4 id="8">   369,   375,   376,   370</quad4>
			<quad4 id="9">   370,   376,   377,   371</quad4>
			<quad4 id="10">   371,   377,   378,   372</quad4>
			<quad4 id="11">   373,   379,   380,   374</quad4>
			<quad4 id="12">   374,   380,   381,   375</quad4>
			<quad4 id="13">   375,   381,   382,   376</quad4>
			<quad4 id="14">   376,   382,   383,   377</quad4>
			<quad4 id="15">   377,   383,   384,   378</quad4>
			<quad4 id="16">   379,   385,   386,   380</quad4>
			<quad4 id="17">   380,   386,   387,   381</quad4>
			<quad4 id="18">   381,   387,   388,   382</quad4>
			<quad4 id="19">   382,   388,   389,   383</quad4>
			<quad4 id="20">   383,   389,   390,   384</quad4>
<!-- ... 5 like lines cut -->
		</Surface>
		<ElementSet name="unnamed_set01">
			<elem id="130"/>
		</ElementSet>
	</Geometry>
	<Boundary>
		<fix bc="z" node_set="FixedDisplacement01"/>
		<fix bc="y" node_set="FixedDisplacement02"/>
		<fix bc="x" node_set="FixedDisplacement03"/>
	</Boundary>
	<Loads>
		<surface_load type="pressure" surface="surface01">
			<pressure lc="1">1</pressure>
			<linear>0</linear>
		</surface_load>
	</Loads>
	<LoadData>
		<loadcurve id="1" type="linear">
			<point>0,0.005</point>
			<point>1,0.005</point>
		</loadcurve>
	</LoadData>
	<Output>
		<plotfile type="febio"/>
		<logfile>
			<element_data data="sy" elem_set="unnamed_set01"/>
		</logfile>
	</Output>
</febio_spec>
