<?xml version="1.0" encoding="ISO-8859-1"?>
<febio_spec version="1.0">
	<Control>
		<title>Spectral Permeability Iso</title>
		<time_steps>20</time_steps>
		<step_size>100</step_size>
		<max_refs>15</max_refs>
		<max_ups>0</max_ups>
		<dtol>0.001</dtol>
		<etol>0.01</etol>
		<rtol>0</rtol>
		<lstol>0.9</lstol>
		<pressure_stiffness>1</pressure_stiffness>
		<time_stepper>
			<dtmin>100</dtmin>
			<dtmax>100</dtmax>
			<max_retries>5</max_retries>
			<opt_iter>10</opt_iter>
		</time_stepper>
		<plot_level>PLOT_DEFAULT</plot_level>
	</Control>
	<Material>
		<material id="1" name="Permeability" type="spectral permeability iso">
			<perm>250</perm>
			<phi0>0.2</phi0>
			<M>0</M>
			<alpha>2</alpha>
			<solid_id>2</solid_id>
		</material>
		<material id="2" name="Solid matrix" type="neo-Hookean">
			<E>1.0</E>
			<v>0</v>
		</material>
		<material id="3" name="Upstream rigid body" type="rigid body">
			<density>1</density>
			<trans_x type="fixed"></trans_x>
			<trans_y type="fixed"></trans_y>
			<trans_z type="fixed"></trans_z>
			<rot_x type="fixed"></rot_x>
			<rot_y type="fixed"></rot_y>
			<rot_z type="fixed"></rot_z>
		</material>
		<material id="4" name="Downstream rigid body" type="rigid body">
			<density>1</density>
			<trans_x type="fixed"></trans_x>
			<trans_y type="fixed"></trans_y>
			<trans_z type="fixed"></trans_z>
			<rot_x type="fixed"></rot_x>
			<rot_y type="fixed"></rot_y>
			<rot_z type="prescribed" lc="2">1</rot_z>
		</material>
	</Material>
	<Geometry>
		<Nodes>
			<node id="1"> -1.7677670e+00, -1.7677670e+00,  0.0000000e+00</node>
			<node id="2">  0.0000000e+00, -1.7677670e+00,  0.0000000e+00</node>
			<node id="3">  1.7677670e+00, -1.7677670e+00,  0.0000000e+00</node>
			<node id="4"> -1.7677670e+00,  0.0000000e+00,  0.0000000e+00</node>
			<node id="5">  0.0000000e+00,  0.0000000e+00,  0.0000000e+00</node>
			<node id="6">  1.7677670e+00,  0.0000000e+00,  0.0000000e+00</node>
			<node id="7"> -1.7677670e+00,  1.7677670e+00,  0.0000000e+00</node>
			<node id="8">  0.0000000e+00,  1.7677670e+00,  0.0000000e+00</node>
			<node id="9">  1.7677670e+00,  1.7677670e+00,  0.0000000e+00</node>
			<node id="10"> -1.7677670e+00, -1.7677670e+00,  3.5000000e+01</node>
			<node id="11">  0.0000000e+00, -1.7677670e+00,  3.5000000e+01</node>
			<node id="12">  1.7677670e+00, -1.7677670e+00,  3.5000000e+01</node>
			<node id="13"> -1.7677670e+00,  0.0000000e+00,  3.5000000e+01</node>
			<node id="14">  0.0000000e+00,  0.0000000e+00,  3.5000000e+01</node>
			<node id="15">  1.7677670e+00,  0.0000000e+00,  3.5000000e+01</node>
			<node id="16"> -1.7677670e+00,  1.7677670e+00,  3.5000000e+01</node>
			<node id="17">  0.0000000e+00,  1.7677670e+00,  3.5000000e+01</node>
			<node id="18">  1.7677670e+00,  1.7677670e+00,  3.5000000e+01</node>
			<node id="19"> -3.5355339e+00, -3.5355339e+00,  0.0000000e+00</node>
			<node id="20">  0.0000000e+00, -5.0000000e+00,  0.0000000e+00</node>
<!-- ... 6041 like lines cut -->
		</Nodes>
		<Elements>
			<hex8 id="1" mat="3">     1,    35,   992,   163,    94,   662,  3146,   907</hex8>
			<hex8 id="2" mat="3">    35,    36,   993,   992,   662,   663,  3147,  3146</hex8>
			<hex8 id="3" mat="3">    36,    37,   994,   993,   663,   664,  3148,  3147</hex8>
			<hex8 id="4" mat="3">    37,     2,    95,   994,   664,    38,   743,  3148</hex8>
			<hex8 id="5" mat="3">   163,   992,   989,   162,   907,  3146,  3149,   906</hex8>
			<hex8 id="6" mat="3">   992,   993,   990,   989,  3146,  3147,  3150,  3149</hex8>
			<hex8 id="7" mat="3">   993,   994,   991,   990,  3147,  3148,  3151,  3150</hex8>
			<hex8 id="8" mat="3">   994,    95,    96,   991,  3148,   743,   744,  3151</hex8>
			<hex8 id="9" mat="3">   162,   989,   986,   161,   906,  3149,  3152,   905</hex8>
			<hex8 id="10" mat="3">   989,   990,   987,   986,  3149,  3150,  3153,  3152</hex8>
			<hex8 id="11" mat="3">   990,   991,   988,   987,  3150,  3151,  3154,  3153</hex8>
			<hex8 id="12" mat="3">   991,    96,    97,   988,  3151,   744,   745,  3154</hex8>
			<hex8 id="13" mat="3">   161,   986,   130,     4,   905,  3152,   826,   131</hex8>
			<hex8 id="14" mat="3">   986,   987,   129,   130,  3152,  3153,   825,   826</hex8>
			<hex8 id="15" mat="3">   987,   988,   128,   129,  3153,  3154,   824,   825</hex8>
			<hex8 id="16" mat="3">   988,    97,     5,   128,  3154,   745,    98,   824</hex8>
			<hex8 id="17" mat="3">    94,   662,  3146,   907,    93,   665,  3155,   910</hex8>
			<hex8 id="18" mat="3">   662,   663,  3147,  3146,   665,   666,  3156,  3155</hex8>
			<hex8 id="19" mat="3">   663,   664,  3148,  3147,   666,   667,  3157,  3156</hex8>
			<hex8 id="20" mat="3">   664,    38,   743,  3148,   667,    39,   746,  3157</hex8>
<!-- ... 5356 like lines cut -->
		</Elements>
	</Geometry>
	<Boundary>
		<fix>
			<node id="61" bc="p"></node>
			<node id="71" bc="p"></node>
			<node id="121" bc="p"></node>
			<node id="154" bc="p"></node>
			<node id="193" bc="p"></node>
			<node id="226" bc="p"></node>
			<node id="265" bc="p"></node>
			<node id="298" bc="p"></node>
			<node id="337" bc="p"></node>
			<node id="376" bc="p"></node>
			<node id="409" bc="p"></node>
			<node id="448" bc="p"></node>
			<node id="487" bc="p"></node>
			<node id="526" bc="p"></node>
			<node id="565" bc="p"></node>
			<node id="604" bc="p"></node>
			<node id="643" bc="p"></node>
			<node id="731" bc="p"></node>
			<node id="732" bc="p"></node>
			<node id="733" bc="p"></node>
<!-- ... 189 like lines cut -->
		</fix>
		<prescribe>
			<node id="41" bc="p" lc="1">1</node>
			<node id="91" bc="p" lc="1">1</node>
			<node id="101" bc="p" lc="1">1</node>
			<node id="134" bc="p" lc="1">1</node>
			<node id="173" bc="p" lc="1">1</node>
			<node id="206" bc="p" lc="1">1</node>
			<node id="245" bc="p" lc="1">1</node>
			<node id="278" bc="p" lc="1">1</node>
			<node id="317" bc="p" lc="1">1</node>
			<node id="356" bc="p" lc="1">1</node>
			<node id="389" bc="p" lc="1">1</node>
			<node id="428" bc="p" lc="1">1</node>
			<node id="467" bc="p" lc="1">1</node>
			<node id="506" bc="p" lc="1">1</node>
			<node id="545" bc="p" lc="1">1</node>
			<node id="584" bc="p" lc="1">1</node>
			<node id="623" bc="p" lc="1">1</node>
			<node id="671" bc="p" lc="1">1</node>
			<node id="672" bc="p" lc="1">1</node>
			<node id="673" bc="p" lc="1">1</node>
<!-- ... 189 like lines cut -->
		</prescribe>
	</Boundary>
	<LoadData>
		<loadcurve id="1">
			<loadpoint>0,0</loadpoint>
			<loadpoint>1000,0.1</loadpoint>
			<loadpoint>2000,0.1</loadpoint>
		</loadcurve>
		<loadcurve id="2">
			<loadpoint>0,0</loadpoint>
			<loadpoint>1000,0</loadpoint>
			<loadpoint>2000,3.14159</loadpoint>
		</loadcurve>
	</LoadData>
</febio_spec>
