<?xml version="1.0" encoding="ISO-8859-1"?>
<!--
A 4x4x20 element beam has a traction force of -0.01 units in the
z-direction applied to its right end.
-->
<febio_spec version="3.0">
	<Module type="solid"/>
	<Control>
		<analysis>STATIC</analysis>
		<time_steps>10</time_steps>
		<step_size>0.1</step_size>
		<solver>
			<max_refs>15</max_refs>
			<max_ups>0</max_ups>
			<diverge_reform>1</diverge_reform>
			<reform_each_time_step>1</reform_each_time_step>
			<dtol>0.001</dtol>
			<etol>0.01</etol>
			<rtol>0</rtol>
			<lstol>0.9</lstol>
			<min_residual>1e-20</min_residual>
			<qnmethod>BFGS</qnmethod>
			<rhoi>-2</rhoi>
		</solver>
	</Control>
	<Globals>
		<Constants>
			<T>0</T>
			<R>0</R>
			<Fc>0</Fc>
		</Constants>
	</Globals>
	<Material>
		<material id="1" name="Material 1" type="Arruda-Boyce">
			<density>1</density>
			<mu>1</mu>
			<N>26.5</N>
			<k>100</k>
		</material>
	</Material>
	<Mesh>
		<Nodes name="Object01">
			<node id="1">-2,-0.5,0</node>
			<node id="2">-2,-0.5,0.25</node>
			<node id="3">-2,-0.5,0.5</node>
			<node id="4">-2,-0.5,0.75</node>
			<node id="5">-2,-0.5,1</node>
			<node id="6">-2,-0.25,0</node>
			<node id="7">-2,-0.25,0.25</node>
			<node id="8">-2,-0.25,0.5</node>
			<node id="9">-2,-0.25,0.75</node>
			<node id="10">-2,-0.25,1</node>
			<node id="11">-2,0,0</node>
			<node id="12">-2,0,0.25</node>
			<node id="13">-2,0,0.5</node>
			<node id="14">-2,0,0.75</node>
			<node id="15">-2,0,1</node>
			<node id="16">-2,0.25,0</node>
			<node id="17">-2,0.25,0.25</node>
			<node id="18">-2,0.25,0.5</node>
			<node id="19">-2,0.25,0.75</node>
			<node id="20">-2,0.25,1</node>
<!-- ... 505 like lines cut -->
		</Nodes>
		<Elements type="hex8" name="Part11">
			<elem id="1">1,26,31,6,2,27,32,7</elem>
			<elem id="2">2,27,32,7,3,28,33,8</elem>
			<elem id="3">3,28,33,8,4,29,34,9</elem>
			<elem id="4">4,29,34,9,5,30,35,10</elem>
			<elem id="5">6,31,36,11,7,32,37,12</elem>
			<elem id="6">7,32,37,12,8,33,38,13</elem>
			<elem id="7">8,33,38,13,9,34,39,14</elem>
			<elem id="8">9,34,39,14,10,35,40,15</elem>
			<elem id="9">11,36,41,16,12,37,42,17</elem>
			<elem id="10">12,37,42,17,13,38,43,18</elem>
			<elem id="11">13,38,43,18,14,39,44,19</elem>
			<elem id="12">14,39,44,19,15,40,45,20</elem>
			<elem id="13">16,41,46,21,17,42,47,22</elem>
			<elem id="14">17,42,47,22,18,43,48,23</elem>
			<elem id="15">18,43,48,23,19,44,49,24</elem>
			<elem id="16">19,44,49,24,20,45,50,25</elem>
			<elem id="17">26,51,56,31,27,52,57,32</elem>
			<elem id="18">27,52,57,32,28,53,58,33</elem>
			<elem id="19">28,53,58,33,29,54,59,34</elem>
			<elem id="20">29,54,59,34,30,55,60,35</elem>
<!-- ... 300 like lines cut -->
		</Elements>
		<NodeSet name="FixedDisplacement01">
			<n id="1"/>
			<n id="2"/>
			<n id="3"/>
			<n id="4"/>
			<n id="5"/>
			<n id="6"/>
			<n id="7"/>
			<n id="8"/>
			<n id="9"/>
			<n id="10"/>
			<n id="11"/>
			<n id="12"/>
			<n id="13"/>
			<n id="14"/>
			<n id="15"/>
			<n id="16"/>
			<n id="17"/>
			<n id="18"/>
			<n id="19"/>
			<n id="20"/>
<!-- ... 5 like lines cut -->
		</NodeSet>
		<NodeSet name="FixedDisplacement02">
			<n id="1"/>
			<n id="2"/>
			<n id="3"/>
			<n id="4"/>
			<n id="5"/>
			<n id="6"/>
			<n id="7"/>
			<n id="8"/>
			<n id="9"/>
			<n id="10"/>
			<n id="11"/>
			<n id="12"/>
			<n id="13"/>
			<n id="14"/>
			<n id="15"/>
			<n id="16"/>
			<n id="17"/>
			<n id="18"/>
			<n id="19"/>
			<n id="20"/>
<!-- ... 5 like lines cut -->
		</NodeSet>
		<NodeSet name="FixedDisplacement03">
			<n id="1"/>
			<n id="2"/>
			<n id="3"/>
			<n id="4"/>
			<n id="5"/>
			<n id="6"/>
			<n id="7"/>
			<n id="8"/>
			<n id="9"/>
			<n id="10"/>
			<n id="11"/>
			<n id="12"/>
			<n id="13"/>
			<n id="14"/>
			<n id="15"/>
			<n id="16"/>
			<n id="17"/>
			<n id="18"/>
			<n id="19"/>
			<n id="20"/>
<!-- ... 5 like lines cut -->
		</NodeSet>
		<Surface name="surface01">
			<quad4 id="1">501,506,507,502</quad4>
			<quad4 id="2">502,507,508,503</quad4>
			<quad4 id="3">503,508,509,504</quad4>
			<quad4 id="4">504,509,510,505</quad4>
			<quad4 id="5">506,511,512,507</quad4>
			<quad4 id="6">507,512,513,508</quad4>
			<quad4 id="7">508,513,514,509</quad4>
			<quad4 id="8">509,514,515,510</quad4>
			<quad4 id="9">511,516,517,512</quad4>
			<quad4 id="10">512,517,518,513</quad4>
			<quad4 id="11">513,518,519,514</quad4>
			<quad4 id="12">514,519,520,515</quad4>
			<quad4 id="13">516,521,522,517</quad4>
			<quad4 id="14">517,522,523,518</quad4>
			<quad4 id="15">518,523,524,519</quad4>
			<quad4 id="16">519,524,525,520</quad4>
		</Surface>
		<ElementSet name="unnamed_set01">
			<e id="36"/>
		</ElementSet>
	</Mesh>
	<MeshDomains>
		<SolidDomain name="Part11" mat="Material 1"/>
	</MeshDomains>
	<Boundary>
		<bc name="FixedDisplacement01" type="fix" node_set="FixedDisplacement01">
			<dofs>z</dofs>
		</bc>
		<bc name="FixedDisplacement02" type="fix" node_set="FixedDisplacement02">
			<dofs>y</dofs>
		</bc>
		<bc name="FixedDisplacement03" type="fix" node_set="FixedDisplacement03">
			<dofs>x</dofs>
		</bc>
	</Boundary>
	<Loads>
		<surface_load name="TractionLoad1" type="traction" surface="surface01">
			<scale lc="1">1</scale>
			<traction>0,0,1</traction>
		</surface_load>
	</Loads>
	<LoadData>
		<load_controller id="1" type="loadcurve">
			<interpolate>SMOOTH</interpolate>
			<points>
				<point>0,0</point>
				<point>1,-0.01</point>
			</points>
		</load_controller>
	</LoadData>
	<Output>
		<plotfile type="febio">
			<var type="displacement"/>
			<var type="stress"/>
		</plotfile>
		<logfile>
			<element_data data="sx" elem_set="unnamed_set01"/>
		</logfile>
	</Output>
</febio_spec>
