<?xml version="1.0" encoding="ISO-8859-1"?>
<!--
Viscoelastic response of cantilever beam.

This problem tests the uncoupled viscoelastic
formulation, since bending is a good test for mesh locking.
-->
<febio_spec version="4.0">
	<Module type="solid"/>
	<Control>
		<analysis>STATIC</analysis>
		<time_steps>1000</time_steps>
		<step_size>0.1</step_size>
		<plot_zero_state>0</plot_zero_state>
		<plot_range>0,-1</plot_range>
		<plot_level>PLOT_MAJOR_ITRS</plot_level>
		<output_level>OUTPUT_MAJOR_ITRS</output_level>
		<plot_stride>1</plot_stride>
		<adaptor_re_solve>1</adaptor_re_solve>
		<time_stepper type="default">
			<max_retries>5</max_retries>
			<opt_iter>10</opt_iter>
			<dtmin>0.01</dtmin>
			<dtmax lc="1">0</dtmax>
			<aggressiveness>0</aggressiveness>
			<cutback>0.5</cutback>
			<dtforce>0</dtforce>
		</time_stepper>
		<solver type="solid">
			<symmetric_stiffness>symmetric</symmetric_stiffness>
			<equation_scheme>staggered</equation_scheme>
			<equation_order>default</equation_order>
			<optimize_bw>0</optimize_bw>
			<lstol>0.9</lstol>
			<lsmin>0.01</lsmin>
			<lsiter>5</lsiter>
			<max_refs>25</max_refs>
			<check_zero_diagonal>0</check_zero_diagonal>
			<zero_diagonal_tol>0</zero_diagonal_tol>
			<force_partition>0</force_partition>
			<reform_each_time_step>1</reform_each_time_step>
			<reform_augment>0</reform_augment>
			<diverge_reform>1</diverge_reform>
			<min_residual>1e-20</min_residual>
			<max_residual>0</max_residual>
			<dtol>0.001</dtol>
			<etol>0.01</etol>
			<rtol>0</rtol>
			<rhoi>-2</rhoi>
			<alpha>1</alpha>
			<beta>0.25</beta>
			<gamma>0.5</gamma>
			<logSolve>0</logSolve>
			<arc_length>0</arc_length>
			<arc_length_scale>0</arc_length_scale>
			<qn_method type="BFGS">
				<max_ups>0</max_ups>
				<max_buffer_size>0</max_buffer_size>
				<cycle_buffer>1</cycle_buffer>
				<cmax>100000</cmax>
			</qn_method>
		</solver>
	</Control>
	<Globals>
		<Constants>
			<T>0</T>
			<R>0</R>
			<Fc>0</Fc>
		</Constants>
	</Globals>
	<Material>
		<material id="1" name="Ogden Viscoelastic" type="uncoupled viscoelastic">
			<density>1</density>
			<k>1000</k>
			<pressure_model>default</pressure_model>
			<t1>1</t1>
			<t2>0</t2>
			<t3>0</t3>
			<t4>0</t4>
			<t5>0</t5>
			<t6>0</t6>
			<g0>1</g0>
			<g1>1</g1>
			<g2>0</g2>
			<g3>0</g3>
			<g4>0</g4>
			<g5>0</g5>
			<g6>0</g6>
			<elastic type="Ogden">
				<density>1</density>
				<k>0</k>
				<pressure_model>default</pressure_model>
				<c1>1</c1>
				<c2>0</c2>
				<c3>0</c3>
				<c4>0</c4>
				<c5>0</c5>
				<c6>0</c6>
				<m1>3</m1>
				<m2>1</m2>
				<m3>1</m3>
				<m4>1</m4>
				<m5>1</m5>
				<m6>1</m6>
			</elastic>
		</material>
	</Material>
	<Mesh>
		<Nodes name="Object01">
			<node id="1">-0.5,-0.5,0</node>
			<node id="2">-0.5,-0.5,0.5</node>
			<node id="3">-0.5,-0.5,1</node>
			<node id="4">-0.5,-0.5,1.5</node>
			<node id="5">-0.5,-0.5,2</node>
			<node id="6">-0.5,-0.5,2.5</node>
			<node id="7">-0.5,-0.5,3</node>
			<node id="8">-0.5,-0.5,3.5</node>
			<node id="9">-0.5,-0.5,4</node>
			<node id="10">-0.5,-0.5,4.5</node>
			<node id="11">-0.5,-0.5,5</node>
			<node id="12">-0.5,-0.5,5.5</node>
			<node id="13">-0.5,-0.5,6</node>
			<node id="14">-0.5,-0.5,6.5</node>
			<node id="15">-0.5,-0.5,7</node>
			<node id="16">-0.5,-0.5,7.5</node>
			<node id="17">-0.5,-0.5,8</node>
			<node id="18">-0.5,-0.5,8.5</node>
			<node id="19">-0.5,-0.5,9</node>
			<node id="20">-0.5,-0.5,9.5</node>
<!-- ... 169 like lines cut -->
		</Nodes>
		<Elements type="hex8" name="Part13">
			<elem id="1">1,64,85,22,2,65,86,23</elem>
			<elem id="2">2,65,86,23,3,66,87,24</elem>
			<elem id="3">3,66,87,24,4,67,88,25</elem>
			<elem id="4">4,67,88,25,5,68,89,26</elem>
			<elem id="5">5,68,89,26,6,69,90,27</elem>
			<elem id="6">6,69,90,27,7,70,91,28</elem>
			<elem id="7">7,70,91,28,8,71,92,29</elem>
			<elem id="8">8,71,92,29,9,72,93,30</elem>
			<elem id="9">9,72,93,30,10,73,94,31</elem>
			<elem id="10">10,73,94,31,11,74,95,32</elem>
			<elem id="11">11,74,95,32,12,75,96,33</elem>
			<elem id="12">12,75,96,33,13,76,97,34</elem>
			<elem id="13">13,76,97,34,14,77,98,35</elem>
			<elem id="14">14,77,98,35,15,78,99,36</elem>
			<elem id="15">15,78,99,36,16,79,100,37</elem>
			<elem id="16">16,79,100,37,17,80,101,38</elem>
			<elem id="17">17,80,101,38,18,81,102,39</elem>
			<elem id="18">18,81,102,39,19,82,103,40</elem>
			<elem id="19">19,82,103,40,20,83,104,41</elem>
			<elem id="20">20,83,104,41,21,84,105,42</elem>
<!-- ... 60 like lines cut -->
		</Elements>
		<NodeSet name="FixedDisplacement01">
			1, 22, 43, 64, 85, 106, 127, 148,
			169
		</NodeSet>
		<NodeSet name="FixedDisplacement02">
			1, 22, 43, 64, 85, 106, 127, 148,
			169
		</NodeSet>
		<NodeSet name="FixedDisplacement03">
			1, 22, 43, 64, 85, 106, 127, 148,
			169
		</NodeSet>
		<Surface name="surface01">
			<quad4 id="1">106,43,44,107</quad4>
			<quad4 id="2">107,44,45,108</quad4>
			<quad4 id="3">108,45,46,109</quad4>
			<quad4 id="4">109,46,47,110</quad4>
			<quad4 id="5">110,47,48,111</quad4>
			<quad4 id="6">111,48,49,112</quad4>
			<quad4 id="7">112,49,50,113</quad4>
			<quad4 id="8">113,50,51,114</quad4>
			<quad4 id="9">114,51,52,115</quad4>
			<quad4 id="10">115,52,53,116</quad4>
			<quad4 id="11">116,53,54,117</quad4>
			<quad4 id="12">117,54,55,118</quad4>
			<quad4 id="13">118,55,56,119</quad4>
			<quad4 id="14">119,56,57,120</quad4>
			<quad4 id="15">120,57,58,121</quad4>
			<quad4 id="16">121,58,59,122</quad4>
			<quad4 id="17">122,59,60,123</quad4>
			<quad4 id="18">123,60,61,124</quad4>
			<quad4 id="19">124,61,62,125</quad4>
			<quad4 id="20">125,62,63,126</quad4>
<!-- ... 20 like lines cut -->
		</Surface>
		<ElementSet name="unnamed_set01">
			21
		</ElementSet>
	</Mesh>
	<MeshDomains>
		<SolidDomain name="Part13" mat="Ogden Viscoelastic"/>
	</MeshDomains>
	<Boundary>
		<bc name="FixedDisplacement01" node_set="FixedDisplacement01" type="zero displacement">
			<x_dof>0</x_dof>
			<y_dof>0</y_dof>
			<z_dof>1</z_dof>
		</bc>
		<bc name="FixedDisplacement02" node_set="FixedDisplacement02" type="zero displacement">
			<x_dof>0</x_dof>
			<y_dof>1</y_dof>
			<z_dof>0</z_dof>
		</bc>
		<bc name="FixedDisplacement03" node_set="FixedDisplacement03" type="zero displacement">
			<x_dof>1</x_dof>
			<y_dof>0</y_dof>
			<z_dof>0</z_dof>
		</bc>
	</Boundary>
	<Loads>
		<surface_load name="TractionLoad1" surface="surface01" type="traction">
			<scale lc="2">1</scale>
			<traction>0,1,0</traction>
			<shell_bottom>0</shell_bottom>
			<linear>0</linear>
		</surface_load>
	</Loads>
	<LoadData>
		<load_controller id="1" name="LC1" type="loadcurve">
			<interpolate>STEP</interpolate>
			<extend>CONSTANT</extend>
			<points>
				<pt>0,0</pt>
				<pt>2,0.1</pt>
				<pt>10,1</pt>
				<pt>100,10</pt>
			</points>
		</load_controller>
		<load_controller id="2" name="LC2" type="loadcurve">
			<interpolate>SMOOTH</interpolate>
			<extend>CONSTANT</extend>
			<points>
				<pt>0,0</pt>
				<pt>1,-0.0002</pt>
			</points>
		</load_controller>
	</LoadData>
	<Output>
		<plotfile type="febio">
			<var type="displacement"/>
			<var type="relative volume"/>
			<var type="stress"/>
		</plotfile>
	</Output>
</febio_spec>
