<?xml version="1.0" encoding="ISO-8859-1"?>
<febio_spec version="4.0">
	<Module type="solid"/>
	<Control>
		<analysis>STATIC</analysis>
		<time_steps>20</time_steps>
		<step_size>0.05</step_size>
		<plot_zero_state>0</plot_zero_state>
		<plot_range>0,-1</plot_range>
		<plot_level>PLOT_MAJOR_ITRS</plot_level>
		<output_level>OUTPUT_MAJOR_ITRS</output_level>
		<plot_stride>1</plot_stride>
		<adaptor_re_solve>1</adaptor_re_solve>
		<time_stepper type="default">
			<max_retries>5</max_retries>
			<opt_iter>100</opt_iter>
			<dtmin>0.01</dtmin>
			<dtmax>0.05</dtmax>
			<aggressiveness>0</aggressiveness>
			<cutback>0.5</cutback>
			<dtforce>0</dtforce>
		</time_stepper>
		<solver type="solid">
			<symmetric_stiffness>symmetric</symmetric_stiffness>
			<equation_scheme>staggered</equation_scheme>
			<equation_order>default</equation_order>
			<optimize_bw>0</optimize_bw>
			<lstol>0.9</lstol>
			<lsmin>0.01</lsmin>
			<lsiter>5</lsiter>
			<max_refs>15</max_refs>
			<check_zero_diagonal>0</check_zero_diagonal>
			<zero_diagonal_tol>0</zero_diagonal_tol>
			<force_partition>0</force_partition>
			<reform_each_time_step>1</reform_each_time_step>
			<reform_augment>0</reform_augment>
			<diverge_reform>1</diverge_reform>
			<min_residual>1e-20</min_residual>
			<max_residual>0</max_residual>
			<dtol>0.001</dtol>
			<etol>0.01</etol>
			<rtol>0</rtol>
			<rhoi>0</rhoi>
			<alpha>1</alpha>
			<beta>0.25</beta>
			<gamma>0.5</gamma>
			<logSolve>0</logSolve>
			<arc_length>0</arc_length>
			<arc_length_scale>0</arc_length_scale>
			<qn_method type="BFGS">
				<max_ups>10</max_ups>
				<max_buffer_size>0</max_buffer_size>
				<cycle_buffer>1</cycle_buffer>
				<cmax>100000</cmax>
			</qn_method>
		</solver>
	</Control>
	<Globals>
		<Constants>
			<T>0</T>
			<R>0</R>
			<Fc>0</Fc>
		</Constants>
	</Globals>
	<Material>
		<material id="1" name="Material1" type="Shenoy">
			<density>1</density>
			<mu>0.7692</mu>
			<k>1.667</k>
			<Ef>134.6</Ef>
			<lam_c>1.02</lam_c>
			<lam_t>0.255</lam_t>
			<n>5</n>
			<m>30</m>
		</material>
	</Material>
	<Mesh>
		<Nodes name="Object01">
			<node id="1">10,10,10</node>
			<node id="2">0.57735027,0.57735027,0.57735027</node>
			<node id="3">10,10,0</node>
			<node id="4">10,10,2</node>
			<node id="5">10,10,4</node>
			<node id="6">10,10,6</node>
			<node id="7">10,10,8</node>
			<node id="8">10,8,10</node>
			<node id="9">10,6,10</node>
			<node id="10">10,4,10</node>
			<node id="11">10,2,10</node>
			<node id="12">10,0,10</node>
			<node id="13">0.70710678,0.70710678,0</node>
			<node id="14">0.70014004,0.70014004,0.14002801</node>
			<node id="15">0.68041382,0.68041382,0.27216553</node>
			<node id="16">0.65094455,0.65094455,0.39056673</node>
			<node id="17">0.61545745,0.61545745,0.49236596</node>
			<node id="18">1.5196152,1.5196152,1.5196152</node>
			<node id="19">2.4618802,2.4618802,2.4618802</node>
			<node id="20">3.4041452,3.4041452,3.4041452</node>
<!-- ... 981 like lines cut -->
		</Nodes>
		<Elements type="hex8" name="Part1">
			<elem id="1">42,43,328,327,47,48,373,372</elem>
			<elem id="2">43,44,329,328,48,49,374,373</elem>
			<elem id="3">44,45,330,329,49,50,375,374</elem>
			<elem id="4">45,46,331,330,50,51,376,375</elem>
			<elem id="5">46,3,67,331,51,4,76,376</elem>
			<elem id="6">327,328,333,332,372,373,378,377</elem>
			<elem id="7">328,329,334,333,373,374,379,378</elem>
			<elem id="8">329,330,335,334,374,375,380,379</elem>
			<elem id="9">330,331,336,335,375,376,381,380</elem>
			<elem id="10">331,67,68,336,376,76,77,381</elem>
			<elem id="11">332,333,338,337,377,378,383,382</elem>
			<elem id="12">333,334,339,338,378,379,384,383</elem>
			<elem id="13">334,335,340,339,379,380,385,384</elem>
			<elem id="14">335,336,341,340,380,381,386,385</elem>
			<elem id="15">336,68,69,341,381,77,78,386</elem>
			<elem id="16">337,338,343,342,382,383,388,387</elem>
			<elem id="17">338,339,344,343,383,384,389,388</elem>
			<elem id="18">339,340,345,344,384,385,390,389</elem>
			<elem id="19">340,341,346,345,385,386,391,390</elem>
			<elem id="20">341,69,70,346,386,78,79,391</elem>
<!-- ... 730 like lines cut -->
		</Elements>
		<NodeSet name="FixedDisplacement1">
			32, 41, 186, 191, 196, 201, 206, 207,
			212, 217, 222, 227, 236, 241, 246, 251,
			256, 261, 266, 271, 276, 277, 282, 287,
			292, 297, 302, 307, 312, 317, 322, 556,
			561, 566, 571, 576, 581, 586, 591, 596,
			601, 606, 611, 616, 621, 626, 631, 636,
			641, 646, 651, 656, 661, 666, 671, 676,
			681, 686, 691, 696, 701, 706, 711, 716,
			721, 726, 731, 736, 741, 746, 751, 756,
			761, 766, 771, 776, 777, 782, 787, 792,
			797, 802, 807, 812, 817, 822, 827, 832,
			837, 842, 847, 852, 857, 862, 867, 872,
			877, 882, 887, 892, 897, 902, 907, 912,
			917, 922, 927, 932, 937, 942, 947, 952,
			957, 962, 967, 972, 977, 982, 987, 992,
			997
		</NodeSet>
		<NodeSet name="FixedDisplacement2">
			12, 27, 42, 47, 52, 57, 62, 116,
			121, 126, 131, 136, 137, 142, 147, 152,
			157, 162, 167, 172, 177, 277, 278, 279,
			280, 281, 322, 323, 324, 325, 326, 327,
			332, 337, 342, 347, 352, 357, 362, 367,
			372, 377, 382, 387, 392, 397, 402, 407,
			412, 417, 422, 427, 432, 437, 442, 447,
			452, 457, 462, 467, 472, 477, 482, 487,
			492, 497, 502, 507, 512, 517, 522, 527,
			532, 537, 542, 547, 797, 798, 799, 800,
			801, 822, 823, 824, 825, 826, 847, 848,
			849, 850, 851, 872, 873, 874, 875, 876,
			897, 898, 899, 900, 901, 922, 923, 924,
			925, 926, 947, 948, 949, 950, 951, 972,
			973, 974, 975, 976, 997, 998, 999, 1000,
			1001
		</NodeSet>
		<NodeSet name="FixedDisplacement3">
			3, 13, 42, 43, 44, 45, 46, 67,
			68, 69, 70, 71, 72, 73, 74, 75,
			112, 113, 114, 115, 116, 182, 183, 184,
			185, 186, 207, 208, 209, 210, 211, 327,
			328, 329, 330, 331, 332, 333, 334, 335,
			336, 337, 338, 339, 340, 341, 342, 343,
			344, 345, 346, 347, 348, 349, 350, 351,
			352, 353, 354, 355, 356, 357, 358, 359,
			360, 361, 362, 363, 364, 365, 366, 367,
			368, 369, 370, 371, 552, 553, 554, 555,
			556, 557, 558, 559, 560, 561, 562, 563,
			564, 565, 566, 567, 568, 569, 570, 571,
			572, 573, 574, 575, 576, 577, 578, 579,
			580, 581, 582, 583, 584, 585, 586, 587,
			588, 589, 590, 591, 592, 593, 594, 595,
			596
		</NodeSet>
		<NodeSet name="FixedDisplacement4">
			1, 3, 4, 5, 6, 7, 8, 9,
			10, 11, 12, 32, 33, 34, 35, 36,
			42, 43, 44, 45, 46, 47, 48, 49,
			50, 51, 52, 53, 54, 55, 56, 57,
			58, 59, 60, 61, 62, 63, 64, 65,
			66, 182, 183, 184, 185, 186, 187, 188,
			189, 190, 191, 192, 193, 194, 195, 196,
			197, 198, 199, 200, 201, 202, 203, 204,
			205, 206, 277, 278, 279, 280, 281, 282,
			283, 284, 285, 286, 287, 288, 289, 290,
			291, 292, 293, 294, 295, 296, 297, 298,
			299, 300, 301, 1, 3, 4, 5, 6,
			7, 8, 9, 10, 11, 12, 32, 33,
			34, 35, 36, 42, 43, 44, 45, 46,
			47, 48, 49, 50, 51, 52, 53, 54,
			55, 56, 57, 58, 59, 60, 61, 62,
			63, 64, 65, 66, 182, 183, 184, 185,
			186, 187, 188, 189, 190, 191, 192, 193,
			194, 195, 196, 197, 198, 199, 200, 201,
			202, 203, 204, 205, 206, 277, 278, 279,
<!-- ... 15 like lines cut -->
		</NodeSet>
		<Surface name="PressureLoad1">
			<quad4 id="1">115,116,121,120</quad4>
			<quad4 id="2">114,115,120,119</quad4>
			<quad4 id="3">113,114,119,118</quad4>
			<quad4 id="4">112,113,118,117</quad4>
			<quad4 id="5">13,112,117,14</quad4>
			<quad4 id="6">120,121,126,125</quad4>
			<quad4 id="7">119,120,125,124</quad4>
			<quad4 id="8">118,119,124,123</quad4>
			<quad4 id="9">117,118,123,122</quad4>
			<quad4 id="10">14,117,122,15</quad4>
			<quad4 id="11">125,126,131,130</quad4>
			<quad4 id="12">124,125,130,129</quad4>
			<quad4 id="13">123,124,129,128</quad4>
			<quad4 id="14">122,123,128,127</quad4>
			<quad4 id="15">15,122,127,16</quad4>
			<quad4 id="16">130,131,136,135</quad4>
			<quad4 id="17">129,130,135,134</quad4>
			<quad4 id="18">128,129,134,133</quad4>
			<quad4 id="19">127,128,133,132</quad4>
			<quad4 id="20">16,127,132,17</quad4>
<!-- ... 55 like lines cut -->
		</Surface>
	</Mesh>
	<MeshDomains>
		<SolidDomain name="Part1" mat="Material1"/>
	</MeshDomains>
	<Boundary>
		<bc name="FixedDisplacement01" node_set="FixedDisplacement1" type="zero displacement">
			<x_dof>1</x_dof>
			<y_dof>0</y_dof>
			<z_dof>0</z_dof>
		</bc>
		<bc name="FixedDisplacement02" node_set="FixedDisplacement2" type="zero displacement">
			<x_dof>0</x_dof>
			<y_dof>1</y_dof>
			<z_dof>0</z_dof>
		</bc>
		<bc name="FixedDisplacement03" node_set="FixedDisplacement3" type="zero displacement">
			<x_dof>0</x_dof>
			<y_dof>0</y_dof>
			<z_dof>1</z_dof>
		</bc>
		<bc name="FixedDisplacement04" node_set="FixedDisplacement4" type="zero displacement">
			<x_dof>1</x_dof>
			<y_dof>1</y_dof>
			<z_dof>1</z_dof>
		</bc>
		<bc name="NormalDisplacement01" surface="PressureLoad1" type="normal displacement">
			<scale lc="1">0.3</scale>
			<surface_hint>1</surface_hint>
			<relative>0</relative>
		</bc>
	</Boundary>
	<LoadData>
		<load_controller id="1" name="LC1" type="loadcurve">
			<interpolate>LINEAR</interpolate>
			<extend>CONSTANT</extend>
			<points>
				<pt>0,0</pt>
				<pt>1,1</pt>
			</points>
		</load_controller>
	</LoadData>
	<Output>
		<plotfile type="febio">
			<var type="displacement"/>
			<var type="stress"/>
		</plotfile>
	</Output>
</febio_spec>
