<?xml version="1.0" encoding="ISO-8859-1"?>
<febio_spec version="4.0">
	<Module type="solid"/>
	<Control>
		<analysis>STATIC</analysis>
		<time_steps>20</time_steps>
		<step_size>0.05</step_size>
		<plot_zero_state>0</plot_zero_state>
		<plot_range>0,-1</plot_range>
		<plot_level>PLOT_MAJOR_ITRS</plot_level>
		<output_level>OUTPUT_MAJOR_ITRS</output_level>
		<plot_stride>1</plot_stride>
		<adaptor_re_solve>1</adaptor_re_solve>
		<time_stepper type="default">
			<max_retries>15</max_retries>
			<opt_iter>100</opt_iter>
			<dtmin>0.01</dtmin>
			<dtmax lc="1">0</dtmax>
			<aggressiveness>0</aggressiveness>
			<cutback>0.5</cutback>
			<dtforce>0</dtforce>
		</time_stepper>
		<solver type="solid">
			<symmetric_stiffness>symmetric</symmetric_stiffness>
			<equation_scheme>staggered</equation_scheme>
			<equation_order>default</equation_order>
			<optimize_bw>0</optimize_bw>
			<lstol>0.9</lstol>
			<lsmin>0.01</lsmin>
			<lsiter>5</lsiter>
			<max_refs>15</max_refs>
			<check_zero_diagonal>0</check_zero_diagonal>
			<zero_diagonal_tol>0</zero_diagonal_tol>
			<force_partition>0</force_partition>
			<reform_each_time_step>1</reform_each_time_step>
			<reform_augment>0</reform_augment>
			<diverge_reform>1</diverge_reform>
			<min_residual>1e-20</min_residual>
			<max_residual>0</max_residual>
			<dtol>0.001</dtol>
			<etol>0.01</etol>
			<rtol>0</rtol>
			<rhoi>-2</rhoi>
			<alpha>1</alpha>
			<beta>0.25</beta>
			<gamma>0.5</gamma>
			<logSolve>0</logSolve>
			<arc_length>0</arc_length>
			<arc_length_scale>0</arc_length_scale>
			<qn_method type="BFGS">
				<max_ups>10</max_ups>
				<max_buffer_size>0</max_buffer_size>
				<cycle_buffer>1</cycle_buffer>
				<cmax>100000</cmax>
			</qn_method>
		</solver>
	</Control>
	<Globals>
		<Constants>
			<T>0</T>
			<R>0</R>
			<Fc>0</Fc>
		</Constants>
	</Globals>
	<Material>
		<material id="1" name="Soft Tissue" type="solid mixture">
			<solid type="Arruda-Boyce unconstrained">
				<N>2</N>
				<ksi>1</ksi>
				<n_term>30</n_term>
				<kappa>1</kappa>
			</solid>
			<solid type="continuous fiber distribution">
				<mat_axis type="angles">
					<theta>0</theta>
					<phi>0</phi>
				</mat_axis>
				<fibers type="fiber-entropy-chain">
					<ksi>1</ksi>
					<N>2</N>
					<n_term>30</n_term>
				</fibers>
				<distribution type="von-Mises-3d">
					<b>0.3</b>
				</distribution>
				<scheme type="fibers-3d-fei">
					<resolution>196</resolution>
				</scheme>
			</solid>
		</material>
	</Material>
	<Mesh>
		<Nodes name="Nodes_All">
			<node id="1">0,0,0</node>
			<node id="2">0.32149,0,0</node>
			<node id="3">0.64297,0,0</node>
			<node id="4">0.96446,0,0</node>
			<node id="5">0,0.19197,0</node>
			<node id="6">0.32149,0.19197,0</node>
			<node id="7">0.64297,0.19197,0</node>
			<node id="8">0.96446,0.19197,0</node>
			<node id="9">0,0.38394,0</node>
			<node id="10">0.32149,0.38394,0</node>
			<node id="11">0.64297,0.38394,0</node>
			<node id="12">0.96446,0.38394,0</node>
			<node id="13">0,0.57592,0</node>
			<node id="14">0.32149,0.57592,0</node>
			<node id="15">0.64297,0.57592,0</node>
			<node id="16">0.96446,0.57592,0</node>
			<node id="17">0,0.76789,0</node>
			<node id="18">0.32149,0.76789,0</node>
			<node id="19">0.64297,0.76789,0</node>
			<node id="20">0.96446,0.76789,0</node>
<!-- ... 596 like lines cut -->
		</Nodes>
		<Elements type="hex8" name="solid_mixture">
			<elem id="1">1,2,6,5,57,58,62,61</elem>
			<elem id="2">2,3,7,6,58,59,63,62</elem>
			<elem id="3">3,4,8,7,59,60,64,63</elem>
			<elem id="4">5,6,10,9,61,62,66,65</elem>
			<elem id="5">6,7,11,10,62,63,67,66</elem>
			<elem id="6">7,8,12,11,63,64,68,67</elem>
			<elem id="7">9,10,14,13,65,66,70,69</elem>
			<elem id="8">10,11,15,14,66,67,71,70</elem>
			<elem id="9">11,12,16,15,67,68,72,71</elem>
			<elem id="10">13,14,18,17,69,70,74,73</elem>
			<elem id="11">14,15,19,18,70,71,75,74</elem>
			<elem id="12">15,16,20,19,71,72,76,75</elem>
			<elem id="13">17,18,22,21,73,74,78,77</elem>
			<elem id="14">18,19,23,22,74,75,79,78</elem>
			<elem id="15">19,20,24,23,75,76,80,79</elem>
			<elem id="16">21,22,26,25,77,78,82,81</elem>
			<elem id="17">22,23,27,26,78,79,83,82</elem>
			<elem id="18">23,24,28,27,79,80,84,83</elem>
			<elem id="19">25,26,30,29,81,82,86,85</elem>
			<elem id="20">26,27,31,30,82,83,87,86</elem>
<!-- ... 370 like lines cut -->
		</Elements>
		<NodeSet name="Fixed_D_x">
			1, 5, 9, 13, 17, 21, 25, 29,
			33, 37, 41, 45, 49, 53, 57, 61,
			65, 69, 73, 77, 81, 85, 89, 93,
			97, 101, 105, 109, 113, 117, 121, 125,
			129, 133, 137, 141, 145, 149, 153, 157,
			161, 165, 169, 173, 177, 181, 185, 189,
			193, 197, 201, 205, 209, 213, 217, 221,
			225, 229, 233, 237, 241, 245, 249, 253,
			257, 261, 265, 269, 273, 277, 281, 285,
			289, 293, 297, 301, 305, 309, 313, 317,
			321, 325, 329, 333, 337, 341, 345, 349,
			353, 357, 361, 365, 369, 373, 377, 381,
			385, 389, 393, 397, 401, 405, 409, 413,
			417, 421, 425, 429, 433, 437, 441, 445,
			449, 453, 457, 461, 465, 469, 473, 477,
			481, 485, 489, 493, 497, 501, 505, 509,
			513, 517, 521, 525, 529, 533, 537, 541,
			545, 549, 553, 557, 561, 565, 569, 573,
			577, 581, 585, 589, 593, 597, 601, 605,
			609, 613
		</NodeSet>
		<NodeSet name="Fixed_D_y">
			1, 2, 3, 4, 57, 58, 59, 60,
			113, 114, 115, 116, 169, 170, 171, 172,
			225, 226, 227, 228, 281, 282, 283, 284,
			337, 338, 339, 340, 393, 394, 395, 396,
			449, 450, 451, 452, 505, 506, 507, 508,
			561, 562, 563, 564
		</NodeSet>
		<NodeSet name="Fixed_D_z">
			1, 2, 3, 4, 5, 6, 7, 8,
			9, 10, 11, 12, 13, 14, 15, 16,
			17, 18, 19, 20, 21, 22, 23, 24,
			25, 26, 27, 28, 29, 30, 31, 32,
			33, 34, 35, 36, 37, 38, 39, 40,
			41, 42, 43, 44, 45, 46, 47, 48,
			49, 50, 51, 52, 53, 54, 55, 56
		</NodeSet>
		<NodeSet name="Fixed_D_xy">
			561, 562, 563, 564, 565, 566, 567, 568,
			569, 570, 571, 572, 573, 574, 575, 576,
			577, 578, 579, 580, 581, 582, 583, 584,
			585, 586, 587, 588, 589, 590, 591, 592,
			593, 594, 595, 596, 597, 598, 599, 600,
			601, 602, 603, 604, 605, 606, 607, 608,
			609, 610, 611, 612, 613, 614, 615, 616
		</NodeSet>
		<NodeSet name="Prescribed_D_xyz">
			561, 562, 563, 564, 565, 566, 567, 568,
			569, 570, 571, 572, 573, 574, 575, 576,
			577, 578, 579, 580, 581, 582, 583, 584,
			585, 586, 587, 588, 589, 590, 591, 592,
			593, 594, 595, 596, 597, 598, 599, 600,
			601, 602, 603, 604, 605, 606, 607, 608,
			609, 610, 611, 612, 613, 614, 615, 616
		</NodeSet>
	</Mesh>
	<MeshDomains>
		<SolidDomain name="solid_mixture" mat="Soft Tissue"/>
	</MeshDomains>
	<Boundary>
		<bc name="Fixed_D_x" node_set="Fixed_D_x" type="zero displacement">
			<x_dof>1</x_dof>
			<y_dof>0</y_dof>
			<z_dof>0</z_dof>
		</bc>
		<bc name="Fixed_D_y" node_set="Fixed_D_y" type="zero displacement">
			<x_dof>0</x_dof>
			<y_dof>1</y_dof>
			<z_dof>0</z_dof>
		</bc>
		<bc name="Fixed_D_z" node_set="Fixed_D_z" type="zero displacement">
			<x_dof>0</x_dof>
			<y_dof>0</y_dof>
			<z_dof>1</z_dof>
		</bc>
		<bc name="Fixed_D_xy" node_set="Fixed_D_xy" type="zero displacement">
			<x_dof>1</x_dof>
			<y_dof>1</y_dof>
			<z_dof>0</z_dof>
		</bc>
		<bc name="Prescribed_D_xyz" node_set="Prescribed_D_xyz" type="prescribed displacement">
			<dof>z</dof>
			<value lc="2">0.8</value>
			<relative>0</relative>
		</bc>
	</Boundary>
	<LoadData>
		<load_controller id="1" name="LC1" type="loadcurve">
			<interpolate>STEP</interpolate>
			<extend>CONSTANT</extend>
			<points>
				<pt>0,0.1</pt>
				<pt>0.5769,0.1</pt>
				<pt>0.8388,0.1</pt>
				<pt>1,0.1</pt>
			</points>
		</load_controller>
		<load_controller id="2" name="LC2" type="loadcurve">
			<interpolate>SMOOTH</interpolate>
			<extend>CONSTANT</extend>
			<points>
				<pt>0,0</pt>
				<pt>1,1</pt>
			</points>
		</load_controller>
	</LoadData>
	<Output>
		<plotfile type="febio">
			<var type="contact gap"/>
			<var type="contact pressure"/>
			<var type="contact traction"/>
			<var type="displacement"/>
			<var type="stress"/>
			<var type="rigid force"/>
			<var type="reaction forces"/>
		</plotfile>
	</Output>
</febio_spec>
