<?xml version="1.0" encoding="ISO-8859-1"?>
<!--
Multigeneration growth in a loaded cantilever beam.  There are two intermingled growth
generations in this analysis.  In generation 1, the beam is loaded and undergoes a large
deflection.  Generation 2 grows in the loaded state. The load is subsequently removed 
and the cantilever recovers to a residually stressed state.

This problem is from the article "Multigenerational interstitial growth of biological 
tissues", Ateshian and Ricken, Biomech Model Mechanobiol, 2010
-->
<febio_spec version="4.0">
	<Module type="solid"/>
	<Control>
		<analysis>STATIC</analysis>
		<time_steps>20</time_steps>
		<step_size>0.1</step_size>
		<plot_zero_state>0</plot_zero_state>
		<plot_range>0,-1</plot_range>
		<plot_level>PLOT_MAJOR_ITRS</plot_level>
		<output_level>OUTPUT_MAJOR_ITRS</output_level>
		<plot_stride>1</plot_stride>
		<adaptor_re_solve>1</adaptor_re_solve>
		<time_stepper type="default">
			<max_retries>5</max_retries>
			<opt_iter>10</opt_iter>
			<dtmin>0.01</dtmin>
			<dtmax lc="1">0</dtmax>
			<aggressiveness>0</aggressiveness>
			<cutback>0.5</cutback>
			<dtforce>0</dtforce>
		</time_stepper>
		<solver type="solid">
			<symmetric_stiffness>symmetric</symmetric_stiffness>
			<equation_scheme>staggered</equation_scheme>
			<equation_order>default</equation_order>
			<optimize_bw>0</optimize_bw>
			<lstol>0.9</lstol>
			<lsmin>0.01</lsmin>
			<lsiter>5</lsiter>
			<max_refs>15</max_refs>
			<check_zero_diagonal>0</check_zero_diagonal>
			<zero_diagonal_tol>0</zero_diagonal_tol>
			<force_partition>0</force_partition>
			<reform_each_time_step>1</reform_each_time_step>
			<reform_augment>0</reform_augment>
			<diverge_reform>1</diverge_reform>
			<min_residual>1e-20</min_residual>
			<max_residual>0</max_residual>
			<dtol>0.001</dtol>
			<etol>0.01</etol>
			<rtol>0</rtol>
			<rhoi>-2</rhoi>
			<alpha>1</alpha>
			<beta>0.25</beta>
			<gamma>0.5</gamma>
			<logSolve>0</logSolve>
			<arc_length>0</arc_length>
			<arc_length_scale>0</arc_length_scale>
			<qn_method type="BFGS">
				<max_ups>0</max_ups>
				<max_buffer_size>0</max_buffer_size>
				<cycle_buffer>1</cycle_buffer>
				<cmax>100000</cmax>
			</qn_method>
		</solver>
	</Control>
	<Globals>
		<Constants>
			<T>0</T>
			<R>0</R>
			<Fc>0</Fc>
		</Constants>
	</Globals>
	<Material>
		<material id="1" name="Solid Mixture" type="multigeneration">
			<density>1</density>
			<generation>
				<start_time>0</start_time>
				<solid type="Holmes-Mow">
					<density>1</density>
					<E>1</E>
					<v>0</v>
					<beta>0.1</beta>
				</solid>
			</generation>
			<generation>
				<start_time>1</start_time>
				<solid type="Holmes-Mow">
					<density>1</density>
					<E>1</E>
					<v>0</v>
					<beta>0.1</beta>
				</solid>
			</generation>
		</material>
	</Material>
	<Mesh>
		<Nodes name="Object01">
			<node id="1">-0.5,-0.5,0</node>
			<node id="2">-0.5,-0.5,0.0085917405</node>
			<node id="3">-0.5,-0.5,0.018042655</node>
			<node id="4">-0.5,-0.5,0.028438661</node>
			<node id="5">-0.5,-0.5,0.039874267</node>
			<node id="6">-0.5,-0.5,0.052453435</node>
			<node id="7">-0.5,-0.5,0.066290519</node>
			<node id="8">-0.5,-0.5,0.081511311</node>
			<node id="9">-0.5,-0.5,0.098254182</node>
			<node id="10">-0.5,-0.5,0.11667134</node>
			<node id="11">-0.5,-0.5,0.13693022</node>
			<node id="12">-0.5,-0.5,0.15921498</node>
			<node id="13">-0.5,-0.5,0.18372822</node>
			<node id="14">-0.5,-0.5,0.21069278</node>
			<node id="15">-0.5,-0.5,0.2403538</node>
			<node id="16">-0.5,-0.5,0.27298092</node>
			<node id="17">-0.5,-0.5,0.30887075</node>
			<node id="18">-0.5,-0.5,0.34834956</node>
			<node id="19">-0.5,-0.5,0.39177626</node>
			<node id="20">-0.5,-0.5,0.43954563</node>
<!-- ... 2122 like lines cut -->
		</Nodes>
		<Elements type="hex8" name="Part1">
			<elem id="1">1,1072,1123,52,2,1073,1124,53</elem>
			<elem id="2">2,1073,1124,53,3,1074,1125,54</elem>
			<elem id="3">3,1074,1125,54,4,1075,1126,55</elem>
			<elem id="4">4,1075,1126,55,5,1076,1127,56</elem>
			<elem id="5">5,1076,1127,56,6,1077,1128,57</elem>
			<elem id="6">6,1077,1128,57,7,1078,1129,58</elem>
			<elem id="7">7,1078,1129,58,8,1079,1130,59</elem>
			<elem id="8">8,1079,1130,59,9,1080,1131,60</elem>
			<elem id="9">9,1080,1131,60,10,1081,1132,61</elem>
			<elem id="10">10,1081,1132,61,11,1082,1133,62</elem>
			<elem id="11">11,1082,1133,62,12,1083,1134,63</elem>
			<elem id="12">12,1083,1134,63,13,1084,1135,64</elem>
			<elem id="13">13,1084,1135,64,14,1085,1136,65</elem>
			<elem id="14">14,1085,1136,65,15,1086,1137,66</elem>
			<elem id="15">15,1086,1137,66,16,1087,1138,67</elem>
			<elem id="16">16,1087,1138,67,17,1088,1139,68</elem>
			<elem id="17">17,1088,1139,68,18,1089,1140,69</elem>
			<elem id="18">18,1089,1140,69,19,1090,1141,70</elem>
			<elem id="19">19,1090,1141,70,20,1091,1142,71</elem>
			<elem id="20">20,1091,1142,71,21,1092,1143,72</elem>
<!-- ... 980 like lines cut -->
		</Elements>
		<NodeSet name="FixedDisplacement01">
			1, 52, 103, 154, 205, 256, 307, 358,
			409, 460, 511, 562, 613, 664, 715, 766,
			817, 868, 919, 970, 1021, 1072, 1123, 1174,
			1225, 1276, 1327, 1378, 1429, 1480, 1531, 1582,
			1633, 1684, 1735, 1786, 1837, 1888, 1939, 1990,
			2041, 2092
		</NodeSet>
		<NodeSet name="FixedDisplacement02">
			1, 52, 103, 154, 205, 256, 307, 358,
			409, 460, 511, 562, 613, 664, 715, 766,
			817, 868, 919, 970, 1021, 1072, 1123, 1174,
			1225, 1276, 1327, 1378, 1429, 1480, 1531, 1582,
			1633, 1684, 1735, 1786, 1837, 1888, 1939, 1990,
			2041, 2092
		</NodeSet>
		<NodeSet name="FixedDisplacement03">
			1, 52, 103, 154, 205, 256, 307, 358,
			409, 460, 511, 562, 613, 664, 715, 766,
			817, 868, 919, 970, 1021, 1072, 1123, 1174,
			1225, 1276, 1327, 1378, 1429, 1480, 1531, 1582,
			1633, 1684, 1735, 1786, 1837, 1888, 1939, 1990,
			2041, 2092
		</NodeSet>
		<Surface name="surface01">
			<quad4 id="1">2092,1021,1022,2093</quad4>
			<quad4 id="2">2093,1022,1023,2094</quad4>
			<quad4 id="3">2094,1023,1024,2095</quad4>
			<quad4 id="4">2095,1024,1025,2096</quad4>
			<quad4 id="5">2096,1025,1026,2097</quad4>
			<quad4 id="6">2097,1026,1027,2098</quad4>
			<quad4 id="7">2098,1027,1028,2099</quad4>
			<quad4 id="8">2099,1028,1029,2100</quad4>
			<quad4 id="9">2100,1029,1030,2101</quad4>
			<quad4 id="10">2101,1030,1031,2102</quad4>
			<quad4 id="11">2102,1031,1032,2103</quad4>
			<quad4 id="12">2103,1032,1033,2104</quad4>
			<quad4 id="13">2104,1033,1034,2105</quad4>
			<quad4 id="14">2105,1034,1035,2106</quad4>
			<quad4 id="15">2106,1035,1036,2107</quad4>
			<quad4 id="16">2107,1036,1037,2108</quad4>
			<quad4 id="17">2108,1037,1038,2109</quad4>
			<quad4 id="18">2109,1038,1039,2110</quad4>
			<quad4 id="19">2110,1039,1040,2111</quad4>
			<quad4 id="20">2111,1040,1041,2112</quad4>
<!-- ... 30 like lines cut -->
		</Surface>
		<ElementSet name="unnamed_set01">
			1
		</ElementSet>
	</Mesh>
	<MeshDomains>
		<SolidDomain name="Part1" mat="Solid Mixture"/>
	</MeshDomains>
	<Boundary>
		<bc name="FixedDisplacement01" node_set="FixedDisplacement01" type="zero displacement">
			<x_dof>0</x_dof>
			<y_dof>0</y_dof>
			<z_dof>1</z_dof>
		</bc>
		<bc name="FixedDisplacement02" node_set="FixedDisplacement02" type="zero displacement">
			<x_dof>0</x_dof>
			<y_dof>1</y_dof>
			<z_dof>0</z_dof>
		</bc>
		<bc name="FixedDisplacement03" node_set="FixedDisplacement03" type="zero displacement">
			<x_dof>1</x_dof>
			<y_dof>0</y_dof>
			<z_dof>0</z_dof>
		</bc>
	</Boundary>
	<Loads>
		<surface_load name="TractionLoad1" surface="surface01" type="traction">
			<scale lc="2">-1</scale>
			<traction>0,1,0</traction>
			<shell_bottom>0</shell_bottom>
			<linear>0</linear>
		</surface_load>
	</Loads>
	<LoadData>
		<load_controller id="1" name="LC1" type="loadcurve">
			<interpolate>STEP</interpolate>
			<extend>CONSTANT</extend>
			<points>
				<pt>0,0</pt>
				<pt>1,0.1</pt>
				<pt>2,0.1</pt>
			</points>
		</load_controller>
		<load_controller id="2" name="LC2" type="loadcurve">
			<interpolate>LINEAR</interpolate>
			<extend>CONSTANT</extend>
			<points>
				<pt>0,0</pt>
				<pt>1,0.001</pt>
				<pt>2,0</pt>
			</points>
		</load_controller>
	</LoadData>
	<Output>
		<plotfile type="febio">
			<var type="displacement"/>
			<var type="relative volume"/>
			<var type="stress"/>
		</plotfile>
	</Output>
</febio_spec>
