<?xml version="1.0" encoding="ISO-8859-1"?>
<!--
Multigeneration growth in a hollow tube, followed by radial cut.  There are two intermingled growth
generations in this analysis.  In generation 1, the tube is internally pressurized and undergoes a large
expansion.  Generation 2 grows in this pressurized state. The pressure is subsequently removed 
and the tube recovers to a residually stressed state. The tube is then cut radially and observed to
curl inward (producing a negative opening angle) as a result of the residual stresses.

This problem is from the article "Multigenerational interstitial growth of biological 
tissues", Ateshian and Ricken, Biomech Model Mechanobiol, 2010
-->
<febio_spec version="3.0">
	<Module type="solid"/>
	<Globals>
		<Constants>
			<T>0</T>
			<R>0</R>
			<Fc>0</Fc>
		</Constants>
	</Globals>
	<Material>
		<material id="1" name="Multigeneration material" type="multigeneration">
			<generation type="generation">
				<start_time>0</start_time>
				<solid type="Holmes-Mow">
					<E>1</E>
					<v>0</v>
					<beta>0.5</beta>
				</solid>
			</generation>
			<generation type="generation">
				<start_time>0.5</start_time>
				<solid type="Holmes-Mow">
					<E>1</E>
					<v>0</v>
					<beta>0.5</beta>
				</solid>
			</generation>
		</material>
	</Material>
	<Mesh>
		<Nodes name="Object01">
			<node id="1">0.5,0,0</node>
			<node id="2">0.525,0,0</node>
			<node id="3">0.55,0,0</node>
			<node id="4">0.575,0,0</node>
			<node id="5">0.6,0,0</node>
			<node id="6">0.625,0,0</node>
			<node id="7">0.65,0,0</node>
			<node id="8">0.675,0,0</node>
			<node id="9">0.7,0,0</node>
			<node id="10">0.725,0,0</node>
			<node id="11">0.75,0,0</node>
			<node id="12">0.775,0,0</node>
			<node id="13">0.8,0,0</node>
			<node id="14">0.825,0,0</node>
			<node id="15">0.85,0,0</node>
			<node id="16">0.875,0,0</node>
			<node id="17">0.9,0,0</node>
			<node id="18">0.925,0,0</node>
			<node id="19">0.95,0,0</node>
			<node id="20">0.975,0,0</node>
<!-- ... 3046 like lines cut -->
		</Nodes>
		<Elements type="hex8" name="Part2">
			<elem id="1">1,2,23,22,1534,1535,1556,1555</elem>
			<elem id="2">2,3,24,23,1535,1536,1557,1556</elem>
			<elem id="3">3,4,25,24,1536,1537,1558,1557</elem>
			<elem id="4">4,5,26,25,1537,1538,1559,1558</elem>
			<elem id="5">5,6,27,26,1538,1539,1560,1559</elem>
			<elem id="6">6,7,28,27,1539,1540,1561,1560</elem>
			<elem id="7">7,8,29,28,1540,1541,1562,1561</elem>
			<elem id="8">8,9,30,29,1541,1542,1563,1562</elem>
			<elem id="9">9,10,31,30,1542,1543,1564,1563</elem>
			<elem id="10">10,11,32,31,1543,1544,1565,1564</elem>
			<elem id="11">11,12,33,32,1544,1545,1566,1565</elem>
			<elem id="12">12,13,34,33,1545,1546,1567,1566</elem>
			<elem id="13">13,14,35,34,1546,1547,1568,1567</elem>
			<elem id="14">14,15,36,35,1547,1548,1569,1568</elem>
			<elem id="15">15,16,37,36,1548,1549,1570,1569</elem>
			<elem id="16">16,17,38,37,1549,1550,1571,1570</elem>
			<elem id="17">17,18,39,38,1550,1551,1572,1571</elem>
			<elem id="18">18,19,40,39,1551,1552,1573,1572</elem>
			<elem id="19">19,20,41,40,1552,1553,1574,1573</elem>
			<elem id="20">20,21,42,41,1553,1554,1575,1574</elem>
<!-- ... 1420 like lines cut -->
		</Elements>
		<NodeSet name="FixedDisplacement01">
			<n id="1"/>
			<n id="2"/>
			<n id="3"/>
			<n id="4"/>
			<n id="5"/>
			<n id="6"/>
			<n id="7"/>
			<n id="8"/>
			<n id="9"/>
			<n id="10"/>
			<n id="11"/>
			<n id="12"/>
			<n id="13"/>
			<n id="14"/>
			<n id="15"/>
			<n id="16"/>
			<n id="17"/>
			<n id="18"/>
			<n id="19"/>
			<n id="20"/>
<!-- ... 3046 like lines cut -->
		</NodeSet>
		<NodeSet name="FixedDisplacement02">
			<n id="777"/>
			<n id="2310"/>
		</NodeSet>
		<NodeSet name="FixedDisplacement03">
			<n id="757"/>
			<n id="758"/>
			<n id="759"/>
			<n id="760"/>
			<n id="761"/>
			<n id="762"/>
			<n id="763"/>
			<n id="764"/>
			<n id="765"/>
			<n id="766"/>
			<n id="767"/>
			<n id="768"/>
			<n id="769"/>
			<n id="770"/>
			<n id="771"/>
			<n id="772"/>
			<n id="773"/>
			<n id="774"/>
			<n id="775"/>
			<n id="776"/>
<!-- ... 22 like lines cut -->
		</NodeSet>
		<NodeSet name="PrescribedBC151">
			<n id="778"/>
			<n id="779"/>
			<n id="780"/>
			<n id="781"/>
			<n id="782"/>
			<n id="783"/>
			<n id="784"/>
			<n id="785"/>
			<n id="786"/>
			<n id="787"/>
			<n id="788"/>
			<n id="789"/>
			<n id="790"/>
			<n id="791"/>
			<n id="792"/>
			<n id="793"/>
			<n id="794"/>
			<n id="795"/>
			<n id="796"/>
			<n id="797"/>
<!-- ... 22 like lines cut -->
		</NodeSet>
		<Surface name="NormalTraction1">
			<quad4 id="1">22,1,1534,1555</quad4>
			<quad4 id="2">43,22,1555,1576</quad4>
			<quad4 id="3">64,43,1576,1597</quad4>
			<quad4 id="4">85,64,1597,1618</quad4>
			<quad4 id="5">106,85,1618,1639</quad4>
			<quad4 id="6">127,106,1639,1660</quad4>
			<quad4 id="7">148,127,1660,1681</quad4>
			<quad4 id="8">169,148,1681,1702</quad4>
			<quad4 id="9">190,169,1702,1723</quad4>
			<quad4 id="10">211,190,1723,1744</quad4>
			<quad4 id="11">232,211,1744,1765</quad4>
			<quad4 id="12">253,232,1765,1786</quad4>
			<quad4 id="13">274,253,1786,1807</quad4>
			<quad4 id="14">295,274,1807,1828</quad4>
			<quad4 id="15">316,295,1828,1849</quad4>
			<quad4 id="16">337,316,1849,1870</quad4>
			<quad4 id="17">358,337,1870,1891</quad4>
			<quad4 id="18">379,358,1891,1912</quad4>
			<quad4 id="19">400,379,1912,1933</quad4>
			<quad4 id="20">421,400,1933,1954</quad4>
<!-- ... 52 like lines cut -->
		</Surface>
		<ElementSet name="unnamed_set01">
			<e id="141"/>
		</ElementSet>
	</Mesh>
	<MeshDomains>
		<SolidDomain name="Part2" mat="Multigeneration material"/>
	</MeshDomains>
	<Boundary>
		<bc name="FixedDisplacement01" type="fix" node_set="FixedDisplacement01">
			<dofs>z</dofs>
		</bc>
		<bc name="FixedDisplacement02" type="fix" node_set="FixedDisplacement02">
			<dofs>y</dofs>
		</bc>
		<bc name="FixedDisplacement03" type="fix" node_set="FixedDisplacement03">
			<dofs>x</dofs>
		</bc>
	</Boundary>
	<Loads>
		<surface_load name="NormalTraction0" type="normal_traction" surface="NormalTraction1">
			<traction lc="3">1</traction>
			<linear>0</linear>
			<effective>0</effective>
		</surface_load>
	</Loads>
	<Step>
		<step id="1" name="Step01">
			<Control>
				<analysis>STATIC</analysis>
				<time_steps>10</time_steps>
				<step_size>0.1</step_size>
				<solver>
					<max_refs>15</max_refs>
					<max_ups>0</max_ups>
					<diverge_reform>1</diverge_reform>
					<reform_each_time_step>1</reform_each_time_step>
					<dtol>0.001</dtol>
					<etol>0.01</etol>
					<rtol>0</rtol>
					<lstol>0.9</lstol>
					<min_residual>1e-20</min_residual>
					<qnmethod>BFGS</qnmethod>
					<rhoi>-2</rhoi>
				</solver>
				<time_stepper>
					<dtmin>0.01</dtmin>
					<dtmax lc="1"></dtmax>
					<max_retries>5</max_retries>
					<opt_iter>10</opt_iter>
				</time_stepper>
			</Control>
			<Boundary>
				<bc name="PrescribedBC151" type="prescribe" node_set="PrescribedBC151">
					<dof>x</dof>
					<scale lc="2">1</scale>
					<relative>0</relative>
				</bc>
			</Boundary>
		</step>
		<step id="2" name="Step02">
			<Control>
				<analysis>STATIC</analysis>
				<time_steps>1</time_steps>
				<step_size>0.1</step_size>
				<solver>
					<max_refs>15</max_refs>
					<max_ups>0</max_ups>
					<diverge_reform>1</diverge_reform>
					<reform_each_time_step>1</reform_each_time_step>
					<dtol>0.001</dtol>
					<etol>0.01</etol>
					<rtol>0</rtol>
					<lstol>0.9</lstol>
					<min_residual>1e-20</min_residual>
					<qnmethod>BFGS</qnmethod>
					<rhoi>-2</rhoi>
				</solver>
				<time_stepper>
					<dtmin>0.01</dtmin>
					<dtmax>0.1</dtmax>
					<max_retries>5</max_retries>
					<opt_iter>10</opt_iter>
				</time_stepper>
			</Control>
		</step>
	</Step>
	<LoadData>
		<load_controller id="1" type="loadcurve">
			<interpolate>STEP</interpolate>
			<points>
				<point>0,0</point>
				<point>0.5,0.5</point>
				<point>1,0.5</point>
			</points>
		</load_controller>
		<load_controller id="2" type="loadcurve">
			<interpolate>LINEAR</interpolate>
			<points>
				<point>0,0</point>
				<point>1,0</point>
			</points>
		</load_controller>
		<load_controller id="3" type="loadcurve">
			<interpolate>LINEAR</interpolate>
			<points>
				<point>0,0</point>
				<point>0.5,-1</point>
				<point>1,0</point>
			</points>
		</load_controller>
	</LoadData>
	<Output>
		<plotfile type="febio">
			<var type="displacement"/>
			<var type="relative volume"/>
			<var type="stress"/>
		</plotfile>
		<logfile>
			<element_data data="sy" elem_set="unnamed_set01"/>
		</logfile>
	</Output>
</febio_spec>
