<?xml version="1.0" encoding="ISO-8859-1"?>
<!--
A 10x10x1 element plate has nodes 1 and 2 constrained in x,y,z.  All other nodes are constrained
in the zdirection.  Nodes 241 and 242 have a prescribed ydisplacement of 1 unit at t=1.  The
xdisplacement of nodes 21 and 22 is the same as the ydisplacement of nodes 241 and 242.
-->
<febio_spec version="4.0">
	<Module type="solid"/>
	<Control>
		<analysis>STATIC</analysis>
		<time_steps>10</time_steps>
		<step_size>0.1</step_size>
		<plot_zero_state>0</plot_zero_state>
		<plot_range>0,-1</plot_range>
		<plot_level>PLOT_MAJOR_ITRS</plot_level>
		<output_level>OUTPUT_MAJOR_ITRS</output_level>
		<plot_stride>1</plot_stride>
		<adaptor_re_solve>1</adaptor_re_solve>
		<time_stepper type="default">
			<max_retries>5</max_retries>
			<opt_iter>10</opt_iter>
			<dtmin>0.01</dtmin>
			<dtmax>0.1</dtmax>
			<aggressiveness>0</aggressiveness>
			<cutback>0.5</cutback>
			<dtforce>0</dtforce>
		</time_stepper>
		<solver type="solid">
			<symmetric_stiffness>symmetric</symmetric_stiffness>
			<equation_scheme>staggered</equation_scheme>
			<equation_order>default</equation_order>
			<optimize_bw>0</optimize_bw>
			<lstol>0.9</lstol>
			<lsmin>0.01</lsmin>
			<lsiter>5</lsiter>
			<max_refs>15</max_refs>
			<check_zero_diagonal>0</check_zero_diagonal>
			<zero_diagonal_tol>0</zero_diagonal_tol>
			<force_partition>0</force_partition>
			<reform_each_time_step>1</reform_each_time_step>
			<reform_augment>0</reform_augment>
			<diverge_reform>1</diverge_reform>
			<min_residual>1e-20</min_residual>
			<max_residual>0</max_residual>
			<dtol>0.001</dtol>
			<etol>0.01</etol>
			<rtol>0</rtol>
			<rhoi>-2</rhoi>
			<alpha>1</alpha>
			<beta>0.25</beta>
			<gamma>0.5</gamma>
			<logSolve>0</logSolve>
			<arc_length>0</arc_length>
			<arc_length_scale>0</arc_length_scale>
			<qn_method type="BFGS">
				<max_ups>0</max_ups>
				<max_buffer_size>0</max_buffer_size>
				<cycle_buffer>1</cycle_buffer>
				<cmax>100000</cmax>
			</qn_method>
		</solver>
	</Control>
	<Globals>
		<Constants>
			<T>0</T>
			<R>0</R>
			<Fc>0</Fc>
		</Constants>
	</Globals>
	<Material>
		<material id="1" name="Material 2" type="neo-Hookean">
			<density>1</density>
			<E>1</E>
			<v>0</v>
		</material>
	</Material>
	<Mesh>
		<Nodes name="Object01">
			<node id="1">-5,-5,0</node>
			<node id="2">-5,-5,1</node>
			<node id="3">-5,-4,0</node>
			<node id="4">-5,-4,1</node>
			<node id="5">-5,-3,0</node>
			<node id="6">-5,-3,1</node>
			<node id="7">-5,-2,0</node>
			<node id="8">-5,-2,1</node>
			<node id="9">-5,-1,0</node>
			<node id="10">-5,-1,1</node>
			<node id="11">-5,0,0</node>
			<node id="12">-5,0,1</node>
			<node id="13">-5,1,0</node>
			<node id="14">-5,1,1</node>
			<node id="15">-5,2,0</node>
			<node id="16">-5,2,1</node>
			<node id="17">-5,3,0</node>
			<node id="18">-5,3,1</node>
			<node id="19">-5,4,0</node>
			<node id="20">-5,4,1</node>
<!-- ... 222 like lines cut -->
		</Nodes>
		<Elements type="hex8" name="Part11">
			<elem id="1">1,23,25,3,2,24,26,4</elem>
			<elem id="2">3,25,27,5,4,26,28,6</elem>
			<elem id="3">5,27,29,7,6,28,30,8</elem>
			<elem id="4">7,29,31,9,8,30,32,10</elem>
			<elem id="5">9,31,33,11,10,32,34,12</elem>
			<elem id="6">11,33,35,13,12,34,36,14</elem>
			<elem id="7">13,35,37,15,14,36,38,16</elem>
			<elem id="8">15,37,39,17,16,38,40,18</elem>
			<elem id="9">17,39,41,19,18,40,42,20</elem>
			<elem id="10">19,41,43,21,20,42,44,22</elem>
			<elem id="11">23,45,47,25,24,46,48,26</elem>
			<elem id="12">25,47,49,27,26,48,50,28</elem>
			<elem id="13">27,49,51,29,28,50,52,30</elem>
			<elem id="14">29,51,53,31,30,52,54,32</elem>
			<elem id="15">31,53,55,33,32,54,56,34</elem>
			<elem id="16">33,55,57,35,34,56,58,36</elem>
			<elem id="17">35,57,59,37,36,58,60,38</elem>
			<elem id="18">37,59,61,39,38,60,62,40</elem>
			<elem id="19">39,61,63,41,40,62,64,42</elem>
			<elem id="20">41,63,65,43,42,64,66,44</elem>
<!-- ... 80 like lines cut -->
		</Elements>
		<NodeSet name="FixedDisplacement01">
			1, 2, 3, 5, 7, 9, 11, 13,
			15, 17, 19, 21, 23, 25, 27, 29,
			31, 33, 35, 37, 39, 41, 43, 45,
			47, 49, 51, 53, 55, 57, 59, 61,
			63, 65, 67, 69, 71, 73, 75, 77,
			79, 81, 83, 85, 87, 89, 91, 93,
			95, 97, 99, 101, 103, 105, 107, 109,
			111, 113, 115, 117, 119, 121, 123, 125,
			127, 129, 131, 133, 135, 137, 139, 141,
			143, 145, 147, 149, 151, 153, 155, 157,
			159, 161, 163, 165, 167, 169, 171, 173,
			175, 177, 179, 181, 183, 185, 187, 189,
			191, 193, 195, 197, 199, 201, 203, 205,
			207, 209, 211, 213, 215, 217, 219, 221,
			223, 225, 227, 229, 231, 233, 235, 237,
			239, 241
		</NodeSet>
		<NodeSet name="FixedDisplacement02">
			1, 2
		</NodeSet>
		<NodeSet name="FixedDisplacement03">
			1, 2
		</NodeSet>
		<NodeSet name="PrescribedBC156">
			241, 242
		</NodeSet>
		<ElementSet name="unnamed_set01">
			100
		</ElementSet>
	</Mesh>
	<MeshDomains>
		<SolidDomain name="Part11" mat="Material 2"/>
	</MeshDomains>
	<Boundary>
		<bc name="FixedDisplacement01" node_set="FixedDisplacement01" type="zero displacement">
			<x_dof>0</x_dof>
			<y_dof>0</y_dof>
			<z_dof>1</z_dof>
		</bc>
		<bc name="FixedDisplacement02" node_set="FixedDisplacement02" type="zero displacement">
			<x_dof>0</x_dof>
			<y_dof>1</y_dof>
			<z_dof>0</z_dof>
		</bc>
		<bc name="FixedDisplacement03" node_set="FixedDisplacement03" type="zero displacement">
			<x_dof>1</x_dof>
			<y_dof>0</y_dof>
			<z_dof>0</z_dof>
		</bc>
		<bc name="PrescribedBC156" node_set="PrescribedBC156" type="prescribed displacement">
			<dof>y</dof>
			<value lc="1">1</value>
			<relative>0</relative>
		</bc>
	</Boundary>
	<LoadData>
		<load_controller id="1" name="LC1" type="loadcurve">
			<interpolate>LINEAR</interpolate>
			<extend>CONSTANT</extend>
			<points>
				<pt>0,0</pt>
				<pt>1,1</pt>
			</points>
		</load_controller>
	</LoadData>
	<Output>
		<plotfile type="febio">
			<var type="displacement"/>
			<var type="relative volume"/>
			<var type="stress"/>
		</plotfile>
	</Output>
</febio_spec>
