<?xml version="1.0" encoding="ISO-8859-1"?>
<!--
A disk three elements thick with it's edge nodes constrained in x,y,z, has a
sinusoidal pressure applied to time t=1.
-->
<febio_spec version="3.0">
	<Module type="solid"/>
	<Control>
		<analysis>STATIC</analysis>
		<time_steps>50</time_steps>
		<step_size>0.02</step_size>
		<solver>
			<max_refs>15</max_refs>
			<max_ups>10</max_ups>
			<diverge_reform>1</diverge_reform>
			<reform_each_time_step>1</reform_each_time_step>
			<dtol>0.001</dtol>
			<etol>0.01</etol>
			<rtol>0</rtol>
			<lstol>0.9</lstol>
			<min_residual>1e-20</min_residual>
			<qnmethod>BFGS</qnmethod>
			<rhoi>-2</rhoi>
		</solver>
		<time_stepper>
			<dtmin>0.005</dtmin>
			<dtmax>0.1</dtmax>
			<max_retries>5</max_retries>
			<opt_iter>10</opt_iter>
		</time_stepper>
	</Control>
	<Globals>
		<Constants>
			<T>0</T>
			<R>0</R>
			<Fc>0</Fc>
		</Constants>
	</Globals>
	<Material>
		<material id="1" name="Material 1" type="neo-Hookean">
			<density>1</density>
			<E>200</E>
			<v>0</v>
		</material>
	</Material>
	<Mesh>
		<Nodes name="Object01">
			<node id="1">-0.35355339,-0.35355339,0</node>
			<node id="2">-0.35355339,-0.26516504,0</node>
			<node id="3">-0.35355339,-0.1767767,0</node>
			<node id="4">-0.35355339,-0.088388348,0</node>
			<node id="5">-0.35355339,0,0</node>
			<node id="6">-0.35355339,0.088388348,0</node>
			<node id="7">-0.35355339,0.1767767,0</node>
			<node id="8">-0.35355339,0.26516504,0</node>
			<node id="9">-0.35355339,0.35355339,0</node>
			<node id="10">-0.26516504,-0.35355339,0</node>
			<node id="11">-0.26516504,-0.26516504,0</node>
			<node id="12">-0.26516504,-0.1767767,0</node>
			<node id="13">-0.26516504,-0.088388348,0</node>
			<node id="14">-0.26516504,0,0</node>
			<node id="15">-0.26516504,0.088388348,0</node>
			<node id="16">-0.26516504,0.1767767,0</node>
			<node id="17">-0.26516504,0.26516504,0</node>
			<node id="18">-0.26516504,0.35355339,0</node>
			<node id="19">-0.1767767,-0.35355339,0</node>
			<node id="20">-0.1767767,-0.26516504,0</node>
<!-- ... 1328 like lines cut -->
		</Nodes>
		<Elements type="hex8" name="Part13">
			<elem id="1">1,10,11,2,338,347,348,339</elem>
			<elem id="2">2,11,12,3,339,348,349,340</elem>
			<elem id="3">3,12,13,4,340,349,350,341</elem>
			<elem id="4">4,13,14,5,341,350,351,342</elem>
			<elem id="5">5,14,15,6,342,351,352,343</elem>
			<elem id="6">6,15,16,7,343,352,353,344</elem>
			<elem id="7">7,16,17,8,344,353,354,345</elem>
			<elem id="8">8,17,18,9,345,354,355,346</elem>
			<elem id="9">10,19,20,11,347,356,357,348</elem>
			<elem id="10">11,20,21,12,348,357,358,349</elem>
			<elem id="11">12,21,22,13,349,358,359,350</elem>
			<elem id="12">13,22,23,14,350,359,360,351</elem>
			<elem id="13">14,23,24,15,351,360,361,352</elem>
			<elem id="14">15,24,25,16,352,361,362,353</elem>
			<elem id="15">16,25,26,17,353,362,363,354</elem>
			<elem id="16">17,26,27,18,354,363,364,355</elem>
			<elem id="17">19,28,29,20,356,365,366,357</elem>
			<elem id="18">20,29,30,21,357,366,367,358</elem>
			<elem id="19">21,30,31,22,358,367,368,359</elem>
			<elem id="20">22,31,32,23,359,368,369,360</elem>
<!-- ... 940 like lines cut -->
		</Elements>
		<NodeSet name="FixedDisplacement01">
			<n id="89"/>
			<n id="97"/>
			<n id="105"/>
			<n id="113"/>
			<n id="121"/>
			<n id="129"/>
			<n id="137"/>
			<n id="145"/>
			<n id="153"/>
			<n id="161"/>
			<n id="169"/>
			<n id="177"/>
			<n id="185"/>
			<n id="193"/>
			<n id="201"/>
			<n id="209"/>
			<n id="217"/>
			<n id="225"/>
			<n id="233"/>
			<n id="241"/>
<!-- ... 108 like lines cut -->
		</NodeSet>
		<NodeSet name="FixedDisplacement02">
			<n id="89"/>
			<n id="97"/>
			<n id="105"/>
			<n id="113"/>
			<n id="121"/>
			<n id="129"/>
			<n id="137"/>
			<n id="145"/>
			<n id="153"/>
			<n id="161"/>
			<n id="169"/>
			<n id="177"/>
			<n id="185"/>
			<n id="193"/>
			<n id="201"/>
			<n id="209"/>
			<n id="217"/>
			<n id="225"/>
			<n id="233"/>
			<n id="241"/>
<!-- ... 108 like lines cut -->
		</NodeSet>
		<NodeSet name="FixedDisplacement03">
			<n id="89"/>
			<n id="97"/>
			<n id="105"/>
			<n id="113"/>
			<n id="121"/>
			<n id="129"/>
			<n id="137"/>
			<n id="145"/>
			<n id="153"/>
			<n id="161"/>
			<n id="169"/>
			<n id="177"/>
			<n id="185"/>
			<n id="193"/>
			<n id="201"/>
			<n id="209"/>
			<n id="217"/>
			<n id="225"/>
			<n id="233"/>
			<n id="241"/>
<!-- ... 108 like lines cut -->
		</NodeSet>
		<Surface name="surface01">
			<quad4 id="1">1012,1021,1022,1013</quad4>
			<quad4 id="2">1013,1022,1023,1014</quad4>
			<quad4 id="3">1014,1023,1024,1015</quad4>
			<quad4 id="4">1015,1024,1025,1016</quad4>
			<quad4 id="5">1016,1025,1026,1017</quad4>
			<quad4 id="6">1017,1026,1027,1018</quad4>
			<quad4 id="7">1018,1027,1028,1019</quad4>
			<quad4 id="8">1019,1028,1029,1020</quad4>
			<quad4 id="9">1021,1030,1031,1022</quad4>
			<quad4 id="10">1022,1031,1032,1023</quad4>
			<quad4 id="11">1023,1032,1033,1024</quad4>
			<quad4 id="12">1024,1033,1034,1025</quad4>
			<quad4 id="13">1025,1034,1035,1026</quad4>
			<quad4 id="14">1026,1035,1036,1027</quad4>
			<quad4 id="15">1027,1036,1037,1028</quad4>
			<quad4 id="16">1028,1037,1038,1029</quad4>
			<quad4 id="17">1030,1039,1040,1031</quad4>
			<quad4 id="18">1031,1040,1041,1032</quad4>
			<quad4 id="19">1032,1041,1042,1033</quad4>
			<quad4 id="20">1033,1042,1043,1034</quad4>
<!-- ... 300 like lines cut -->
		</Surface>
		<ElementSet name="unnamed_set01">
			<e id="890"/>
		</ElementSet>
	</Mesh>
	<MeshDomains>
		<SolidDomain name="Part13" mat="Material 1"/>
	</MeshDomains>
	<Boundary>
		<bc name="FixedDisplacement01" type="fix" node_set="FixedDisplacement01">
			<dofs>z</dofs>
		</bc>
		<bc name="FixedDisplacement02" type="fix" node_set="FixedDisplacement02">
			<dofs>y</dofs>
		</bc>
		<bc name="FixedDisplacement03" type="fix" node_set="FixedDisplacement03">
			<dofs>x</dofs>
		</bc>
	</Boundary>
	<Loads>
		<surface_load name="PressureLoad1" type="pressure" surface="surface01">
			<pressure lc="1">1</pressure>
			<linear>0</linear>
			<symmetric_stiffness>1</symmetric_stiffness>
		</surface_load>
	</Loads>
	<LoadData>
		<load_controller id="1" type="loadcurve">
			<interpolate>LINEAR</interpolate>
			<points>
				<point>0,0</point>
				<point>0.0204082,0.127877</point>
				<point>0.0408163,0.253655</point>
				<point>0.0612245,0.375267</point>
				<point>0.0816327,0.490718</point>
				<point>0.102041,0.598111</point>
				<point>0.122449,0.695683</point>
				<point>0.142857,0.781831</point>
				<point>0.163265,0.855143</point>
				<point>0.183673,0.914413</point>
				<point>0.204082,0.958668</point>
				<point>0.22449,0.987182</point>
				<point>0.244898,0.999486</point>
				<point>0.265306,0.995379</point>
				<point>0.285714,0.974928</point>
				<point>0.306122,0.938468</point>
				<point>0.326531,0.886599</point>
				<point>0.346939,0.820172</point>
				<point>0.367347,0.740278</point>
				<point>0.387755,0.648228</point>
<!-- ... 30 like lines cut -->
			</points>
		</load_controller>
	</LoadData>
	<Output>
		<plotfile type="febio">
			<var type="displacement"/>
			<var type="relative volume"/>
			<var type="stress"/>
		</plotfile>
		<logfile>
			<element_data data="Ez" elem_set="unnamed_set01"/>
		</logfile>
	</Output>
</febio_spec>
