<?xml version="1.0" encoding="ISO-8859-1"?>
<!--
Finger Hood Model with springs connecting the extensor indicis to the bone.
-->
<febio_spec version="4.0">
	<Module type="solid"/>
	<Control>
		<analysis>STATIC</analysis>
		<time_steps>5</time_steps>
		<!-- <time_steps>10</time_steps> -->
		<step_size>0.1</step_size>
		<plot_zero_state>0</plot_zero_state>
		<plot_range>0,-1</plot_range>
		<plot_level>PLOT_MAJOR_ITRS</plot_level>
		<output_level>OUTPUT_MAJOR_ITRS</output_level>
		<plot_stride>1</plot_stride>
		<adaptor_re_solve>1</adaptor_re_solve>
		<time_stepper type="default">
			<max_retries>5</max_retries>
			<opt_iter>10</opt_iter>
			<dtmin>0.01</dtmin>
			<dtmax>0.1</dtmax>
			<aggressiveness>0</aggressiveness>
			<cutback>0.5</cutback>
			<dtforce>0</dtforce>
		</time_stepper>
		<solver type="solid">
			<symmetric_stiffness>symmetric</symmetric_stiffness>
			<equation_scheme>staggered</equation_scheme>
			<equation_order>default</equation_order>
			<optimize_bw>0</optimize_bw>
			<lstol>0.9</lstol>
			<lsmin>0.01</lsmin>
			<lsiter>5</lsiter>
			<max_refs>15</max_refs>
			<check_zero_diagonal>0</check_zero_diagonal>
			<zero_diagonal_tol>0</zero_diagonal_tol>
			<force_partition>0</force_partition>
			<reform_each_time_step>1</reform_each_time_step>
			<reform_augment>0</reform_augment>
			<diverge_reform>1</diverge_reform>
			<min_residual>1e-20</min_residual>
			<max_residual>0</max_residual>
			<dtol>0.001</dtol>
			<etol>0.01</etol>
			<rtol>0</rtol>
			<rhoi>-2</rhoi>
			<alpha>1</alpha>
			<beta>0.25</beta>
			<gamma>0.5</gamma>
			<logSolve>0</logSolve>
			<arc_length>0</arc_length>
			<arc_length_scale>0</arc_length_scale>
			<qn_method type="BFGS">
				<max_ups>10</max_ups>
				<max_buffer_size>0</max_buffer_size>
				<cycle_buffer>1</cycle_buffer>
				<cmax>100000</cmax>
			</qn_method>
		</solver>
	</Control>
	<Globals>
		<Constants>
			<T>0</T>
			<R>0</R>
			<Fc>0</Fc>
		</Constants>
	</Globals>
	<Material>
		<material id="1" name="Tendon" type="isotropic elastic">
			<density>1</density>
			<E>1825.5</E>
			<v>0.4</v>
		</material>
		<material id="2" name="Fiber" type="isotropic elastic">
			<density>1</density>
			<E>100</E>
			<v>0.4</v>
		</material>
		<material id="3" name="Thin tendon" type="isotropic elastic">
			<density>1</density>
			<E>400</E>
			<v>0.4</v>
		</material>
		<material id="4" name="Insertion" type="isotropic elastic">
			<density>1</density>
			<E>100</E>
			<v>0.4</v>
		</material>
		<material id="5" name="Material 5" type="rigid body">
			<density>1</density>
			<E>1</E>
			<v>0</v>
			<center_of_mass>0,0,0</center_of_mass>
		</material>
		<material id="6" name="Material 6" type="rigid body">
			<density>1</density>
			<E>1</E>
			<v>0</v>
			<center_of_mass>0,0,0</center_of_mass>
		</material>
		<material id="7" name="Material 7" type="rigid body">
			<density>1</density>
			<E>1</E>
			<v>0</v>
			<center_of_mass>0,0,0</center_of_mass>
		</material>
		<material id="8" name="Material 8" type="rigid body">
			<density>1</density>
			<E>1</E>
			<v>0</v>
			<center_of_mass>0,0,0</center_of_mass>
		</material>
	</Material>
	<Mesh>
		<Nodes name="Object01">
			<node id="1">-62.507276,-11.15499,50.62781</node>
			<node id="2">-62.86692,-10.77018,49.87964</node>
			<node id="3">-63.21175,-11.11421,49.217</node>
			<node id="4">-63.40664,-11.43096,48.48349</node>
			<node id="5">-63.70303,-11.70978,47.76882</node>
			<node id="6">-63.87006,-11.85062,46.97596</node>
			<node id="7">-63.97703,-12.07444,46.19186</node>
			<node id="8">-64.11546,-12.39996,45.44941</node>
			<node id="9">-64.24329,-12.64611,44.67519</node>
			<node id="10">-64.30898,-12.82629,43.87545</node>
			<node id="11">-64.34346,-13.02275,43.0776</node>
			<node id="12">-64.34052,-13.35289,42.32438</node>
			<node id="13">-64.36823,-13.69504,41.57704</node>
			<node id="14">-64.44146,-13.92772,40.79165</node>
			<node id="15">-64.50616,-14.04389,39.98006</node>
			<node id="16">-64.53613,-14.15033,39.16512</node>
			<node id="17">-64.61127,-14.26807,38.35466</node>
			<node id="18">-64.81544,-14.45238,37.57961</node>
			<node id="19">-64.98709,-14.65109,36.80025</node>
			<node id="20">-65.07784,-14.93901,36.03525</node>
<!-- ... 15463 like lines cut -->
		</Nodes>
		<Elements type="quad4" name="Part11">
			<elem id="1">487,488,407,406</elem>
			<elem id="2">568,569,488,487</elem>
			<elem id="3">649,650,569,568</elem>
			<elem id="4">730,731,650,649</elem>
			<elem id="5">811,812,731,730</elem>
			<elem id="6">892,893,812,811</elem>
			<elem id="7">973,974,893,892</elem>
			<elem id="8">1054,1055,974,973</elem>
			<elem id="9">1135,1136,1055,1054</elem>
			<elem id="10">1216,1217,1136,1135</elem>
			<elem id="11">1297,1298,1217,1216</elem>
			<elem id="12">1378,1379,1298,1297</elem>
			<elem id="13">488,489,408,407</elem>
			<elem id="14">569,570,489,488</elem>
			<elem id="15">650,651,570,569</elem>
			<elem id="16">731,732,651,650</elem>
			<elem id="17">812,813,732,731</elem>
			<elem id="18">893,894,813,812</elem>
			<elem id="19">974,975,894,893</elem>
			<elem id="20">1055,1056,975,974</elem>
<!-- ... 3179 like lines cut -->
		</Elements>
		<Elements type="quad4" name="Part12">
			<elem id="3200">82,83,2,1</elem>
			<elem id="3201">163,164,83,82</elem>
			<elem id="3202">244,245,164,163</elem>
			<elem id="3203">325,326,245,244</elem>
			<elem id="3204">406,407,326,325</elem>
			<elem id="3205">83,84,3,2</elem>
			<elem id="3206">164,165,84,83</elem>
			<elem id="3207">245,246,165,164</elem>
			<elem id="3208">326,327,246,245</elem>
			<elem id="3209">407,408,327,326</elem>
			<elem id="3210">84,85,4,3</elem>
			<elem id="3211">165,166,85,84</elem>
			<elem id="3212">246,247,166,165</elem>
			<elem id="3213">327,328,247,246</elem>
			<elem id="3214">408,409,328,327</elem>
			<elem id="3215">85,86,5,4</elem>
			<elem id="3216">166,167,86,85</elem>
			<elem id="3217">247,248,167,166</elem>
			<elem id="3218">328,329,248,247</elem>
			<elem id="3219">409,410,329,328</elem>
<!-- ... 1195 like lines cut -->
		</Elements>
		<Elements type="quad4" name="Part13">
			<elem id="4415">1254,1255,1174,1173</elem>
			<elem id="4416">1335,1336,1255,1254</elem>
			<elem id="4417">1416,1417,1336,1335</elem>
			<elem id="4418">1255,1256,1175,1174</elem>
			<elem id="4419">1336,1337,1256,1255</elem>
			<elem id="4420">1417,1418,1337,1336</elem>
			<elem id="4421">1256,1257,1176,1175</elem>
			<elem id="4422">1337,1338,1257,1256</elem>
			<elem id="4423">1418,1419,1338,1337</elem>
			<elem id="4424">1257,1258,1177,1176</elem>
			<elem id="4425">1338,1339,1258,1257</elem>
			<elem id="4426">1419,1420,1339,1338</elem>
			<elem id="4427">1258,1259,1178,1177</elem>
			<elem id="4428">1339,1340,1259,1258</elem>
			<elem id="4429">1420,1421,1340,1339</elem>
			<elem id="4430">1259,1260,1179,1178</elem>
			<elem id="4431">1340,1341,1260,1259</elem>
			<elem id="4432">1421,1422,1341,1340</elem>
			<elem id="4433">1260,1261,1180,1179</elem>
			<elem id="4434">1341,1342,1261,1260</elem>
<!-- ... 224 like lines cut -->
		</Elements>
		<Elements type="quad4" name="Part14">
			<elem id="4659">1332,1333,1252,1251</elem>
			<elem id="4660">1413,1414,1333,1332</elem>
			<elem id="4661">1333,1334,1253,1252</elem>
			<elem id="4662">1414,1415,1334,1333</elem>
			<elem id="4663">1253,1254,1173,1172</elem>
			<elem id="4664">1334,1335,1254,1253</elem>
			<elem id="4665">1415,1416,1335,1334</elem>
			<elem id="4666">1494,1495,1414,1413</elem>
			<elem id="4667">1575,1576,1495,1494</elem>
			<elem id="4668">1656,1657,1576,1575</elem>
			<elem id="4669">1737,1738,1657,1656</elem>
			<elem id="4670">1818,1819,1738,1737</elem>
			<elem id="4671">1899,1900,1819,1818</elem>
			<elem id="4672">1980,1981,1900,1899</elem>
			<elem id="4673">2061,2062,1981,1980</elem>
			<elem id="4674">1495,1496,1415,1414</elem>
			<elem id="4675">1576,1577,1496,1495</elem>
			<elem id="4676">1657,1658,1577,1576</elem>
			<elem id="4677">1738,1739,1658,1657</elem>
			<elem id="4678">1819,1820,1739,1738</elem>
<!-- ... 12 like lines cut -->
		</Elements>
		<Elements type="tri3" name="Part15">
			<elem id="4691">4923,4922,4924</elem>
			<elem id="4692">4924,4925,4923</elem>
			<elem id="4693">4927,4928,4926</elem>
			<elem id="4694">4928,4927,4929</elem>
			<elem id="4695">4929,4930,4928</elem>
			<elem id="4696">4930,4929,4931</elem>
			<elem id="4697">4931,4932,4930</elem>
			<elem id="4698">4937,4932,4931</elem>
			<elem id="4699">4933,4934,4926</elem>
			<elem id="4700">4927,4926,4934</elem>
			<elem id="4701">4934,4935,4927</elem>
			<elem id="4702">4929,4927,4935</elem>
			<elem id="4703">4935,4922,4929</elem>
			<elem id="4704">4929,4922,4923</elem>
			<elem id="4705">4923,4931,4929</elem>
			<elem id="4706">4923,4936,4937</elem>
			<elem id="4707">4937,4931,4923</elem>
			<elem id="4708">4934,4933,4938</elem>
			<elem id="4709">4938,4939,4934</elem>
			<elem id="4710">4935,4934,4939</elem>
<!-- ... 10060 like lines cut -->
		</Elements>
		<Elements type="tri3" name="Part16">
			<elem id="14771">9968,9969,9964</elem>
			<elem id="14772">9965,9964,9969</elem>
			<elem id="14773">9969,9970,9965</elem>
			<elem id="14774">9966,9965,9970</elem>
			<elem id="14775">9970,9971,9966</elem>
			<elem id="14776">9967,9966,9971</elem>
			<elem id="14777">9971,9972,9967</elem>
			<elem id="14778">9967,9972,9973</elem>
			<elem id="14779">9969,9968,9974</elem>
			<elem id="14780">9974,9975,9969</elem>
			<elem id="14781">9970,9969,9975</elem>
			<elem id="14782">9975,9976,9970</elem>
			<elem id="14783">9971,9970,9976</elem>
			<elem id="14784">9976,9977,9971</elem>
			<elem id="14785">9972,9971,9977</elem>
			<elem id="14786">9977,9978,9972</elem>
			<elem id="14787">9973,9972,9978</elem>
			<elem id="14788">9978,9979,9973</elem>
			<elem id="14789">9980,9975,9974</elem>
			<elem id="14790">9976,9975,9980</elem>
<!-- ... 5682 like lines cut -->
		</Elements>
		<Elements type="tri3" name="Part17">
			<elem id="20473">12823,12817,12818</elem>
			<elem id="20474">12818,12824,12823</elem>
			<elem id="20475">12825,12817,12823</elem>
			<elem id="20476">12825,12819,12817</elem>
			<elem id="20477">12825,12826,12819</elem>
			<elem id="20478">12826,12820,12819</elem>
			<elem id="20479">12821,12820,12826</elem>
			<elem id="20480">12826,12827,12821</elem>
			<elem id="20481">12822,12821,12827</elem>
			<elem id="20482">12827,12828,12822</elem>
			<elem id="20483">12823,12824,12830</elem>
			<elem id="20484">12830,12831,12823</elem>
			<elem id="20485">12823,12831,12832</elem>
			<elem id="20486">12826,12825,12832</elem>
			<elem id="20487">12832,12833,12826</elem>
			<elem id="20488">12834,12826,12833</elem>
			<elem id="20489">12834,12827,12826</elem>
			<elem id="20490">12834,12828,12827</elem>
			<elem id="20491">12836,12835,12829</elem>
			<elem id="20492">12835,12837,12829</elem>
<!-- ... 3392 like lines cut -->
		</Elements>
		<Elements type="tri3" name="Part18">
			<elem id="23885">14527,14528,14525</elem>
			<elem id="23886">14528,14527,14529</elem>
			<elem id="23887">14529,14530,14528</elem>
			<elem id="23888">14530,14529,14531</elem>
			<elem id="23889">14526,14538,14532</elem>
			<elem id="23890">14526,14532,14525</elem>
			<elem id="23891">14532,14533,14525</elem>
			<elem id="23892">14527,14525,14533</elem>
			<elem id="23893">14533,14534,14527</elem>
			<elem id="23894">14529,14527,14534</elem>
			<elem id="23895">14534,14535,14529</elem>
			<elem id="23896">14531,14529,14535</elem>
			<elem id="23897">14535,14536,14531</elem>
			<elem id="23898">14531,14536,14537</elem>
			<elem id="23899">14538,14539,14532</elem>
			<elem id="23900">14533,14532,14539</elem>
			<elem id="23901">14539,14540,14533</elem>
			<elem id="23902">14534,14533,14540</elem>
			<elem id="23903">14540,14541,14534</elem>
			<elem id="23904">14535,14534,14541</elem>
<!-- ... 1894 like lines cut -->
		</Elements>
		<NodeSet name="FixedDisplacement01">
			3471, 3501, 3531, 3561, 3591, 3621, 4091, 4121,
			4151, 4181, 4211, 4241, 4271, 4301, 4331, 4361,
			4391, 4421, 4451, 4481, 4771, 4801, 4831, 4861,
			4891, 4921
		</NodeSet>
		<NodeSet name="FixedDisplacement02">
			3471, 3501, 3531, 3561, 3591, 3621, 4091, 4121,
			4151, 4181, 4211, 4241, 4271, 4301, 4331, 4361,
			4391, 4421, 4451, 4481, 4771, 4801, 4831, 4861,
			4891, 4921
		</NodeSet>
		<NodeSet name="RigidNodeset 1">
			1, 82, 163, 244, 325, 406, 2836, 2917,
			2998, 3079, 3160, 3241
		</NodeSet>
		<NodeSet name="RigidNodeset 2">
			1173, 1254, 1335, 1416, 1497, 1578, 1659, 1740,
			1821, 1902, 1983, 2064, 2145
		</NodeSet>
		<NodeSet name="RigidNodeset 3">
			3392, 3393, 3394, 3412, 3413, 3414, 3432, 3433,
			3434
		</NodeSet>
		<NodeSet name="RigidNodeset 4">
			4626, 4627, 4628, 4646, 4647, 4648, 4666, 4667,
			4668
		</NodeSet>
		<NodeSet name="ForceNodeset01">
			4771, 4801, 4831, 4861, 4891, 4921
		</NodeSet>
		<NodeSet name="ForceNodeset02">
			4091, 4121, 4151, 4181, 4211, 4241, 4271, 4301,
			4331, 4361, 4391, 4421, 4451, 4481
		</NodeSet>
		<NodeSet name="ForceNodeset03">
			3471, 3501, 3531, 3561, 3591, 3621
		</NodeSet>
		<Surface name="PrimarySurface01">
			<quad4 id="1">82,83,2,1</quad4>
			<quad4 id="2">163,164,83,82</quad4>
			<quad4 id="3">244,245,164,163</quad4>
			<quad4 id="4">325,326,245,244</quad4>
			<quad4 id="5">406,407,326,325</quad4>
			<quad4 id="6">487,488,407,406</quad4>
			<quad4 id="7">568,569,488,487</quad4>
			<quad4 id="8">649,650,569,568</quad4>
			<quad4 id="9">730,731,650,649</quad4>
			<quad4 id="10">811,812,731,730</quad4>
			<quad4 id="11">892,893,812,811</quad4>
			<quad4 id="12">973,974,893,892</quad4>
			<quad4 id="13">1054,1055,974,973</quad4>
			<quad4 id="14">1135,1136,1055,1054</quad4>
			<quad4 id="15">1216,1217,1136,1135</quad4>
			<quad4 id="16">1297,1298,1217,1216</quad4>
			<quad4 id="17">1378,1379,1298,1297</quad4>
			<quad4 id="18">83,84,3,2</quad4>
			<quad4 id="19">164,165,84,83</quad4>
			<quad4 id="20">245,246,165,164</quad4>
<!-- ... 4670 like lines cut -->
		</Surface>
		<Surface name="SecondarySurface01">
			<tri3 id="1">4923,4922,4924</tri3>
			<tri3 id="2">4924,4925,4923</tri3>
			<tri3 id="3">4927,4928,4926</tri3>
			<tri3 id="4">4928,4927,4929</tri3>
			<tri3 id="5">4929,4930,4928</tri3>
			<tri3 id="6">4930,4929,4931</tri3>
			<tri3 id="7">4931,4932,4930</tri3>
			<tri3 id="8">4937,4932,4931</tri3>
			<tri3 id="9">4933,4934,4926</tri3>
			<tri3 id="10">4927,4926,4934</tri3>
			<tri3 id="11">4934,4935,4927</tri3>
			<tri3 id="12">4929,4927,4935</tri3>
			<tri3 id="13">4935,4922,4929</tri3>
			<tri3 id="14">4929,4922,4923</tri3>
			<tri3 id="15">4923,4931,4929</tri3>
			<tri3 id="16">4923,4936,4937</tri3>
			<tri3 id="17">4937,4931,4923</tri3>
			<tri3 id="18">4934,4933,4938</tri3>
			<tri3 id="19">4938,4939,4934</tri3>
			<tri3 id="20">4935,4934,4939</tri3>
<!-- ... 10060 like lines cut -->
		</Surface>
		<Surface name="PrimarySurface02">
			<quad4 id="1">82,83,2,1</quad4>
			<quad4 id="2">163,164,83,82</quad4>
			<quad4 id="3">244,245,164,163</quad4>
			<quad4 id="4">325,326,245,244</quad4>
			<quad4 id="5">406,407,326,325</quad4>
			<quad4 id="6">487,488,407,406</quad4>
			<quad4 id="7">568,569,488,487</quad4>
			<quad4 id="8">649,650,569,568</quad4>
			<quad4 id="9">730,731,650,649</quad4>
			<quad4 id="10">811,812,731,730</quad4>
			<quad4 id="11">892,893,812,811</quad4>
			<quad4 id="12">973,974,893,892</quad4>
			<quad4 id="13">1054,1055,974,973</quad4>
			<quad4 id="14">1135,1136,1055,1054</quad4>
			<quad4 id="15">1216,1217,1136,1135</quad4>
			<quad4 id="16">1297,1298,1217,1216</quad4>
			<quad4 id="17">1378,1379,1298,1297</quad4>
			<quad4 id="18">83,84,3,2</quad4>
			<quad4 id="19">164,165,84,83</quad4>
			<quad4 id="20">245,246,165,164</quad4>
<!-- ... 4670 like lines cut -->
		</Surface>
		<Surface name="SecondarySurface02">
			<tri3 id="1">9968,9969,9964</tri3>
			<tri3 id="2">9965,9964,9969</tri3>
			<tri3 id="3">9969,9970,9965</tri3>
			<tri3 id="4">9966,9965,9970</tri3>
			<tri3 id="5">9970,9971,9966</tri3>
			<tri3 id="6">9967,9966,9971</tri3>
			<tri3 id="7">9971,9972,9967</tri3>
			<tri3 id="8">9967,9972,9973</tri3>
			<tri3 id="9">9969,9968,9974</tri3>
			<tri3 id="10">9974,9975,9969</tri3>
			<tri3 id="11">9970,9969,9975</tri3>
			<tri3 id="12">9975,9976,9970</tri3>
			<tri3 id="13">9971,9970,9976</tri3>
			<tri3 id="14">9976,9977,9971</tri3>
			<tri3 id="15">9972,9971,9977</tri3>
			<tri3 id="16">9977,9978,9972</tri3>
			<tri3 id="17">9973,9972,9978</tri3>
			<tri3 id="18">9978,9979,9973</tri3>
			<tri3 id="19">9980,9975,9974</tri3>
			<tri3 id="20">9976,9975,9980</tri3>
<!-- ... 5682 like lines cut -->
		</Surface>
		<Surface name="PrimarySurface03">
			<quad4 id="1">82,83,2,1</quad4>
			<quad4 id="2">163,164,83,82</quad4>
			<quad4 id="3">244,245,164,163</quad4>
			<quad4 id="4">325,326,245,244</quad4>
			<quad4 id="5">406,407,326,325</quad4>
			<quad4 id="6">487,488,407,406</quad4>
			<quad4 id="7">568,569,488,487</quad4>
			<quad4 id="8">649,650,569,568</quad4>
			<quad4 id="9">730,731,650,649</quad4>
			<quad4 id="10">811,812,731,730</quad4>
			<quad4 id="11">892,893,812,811</quad4>
			<quad4 id="12">973,974,893,892</quad4>
			<quad4 id="13">1054,1055,974,973</quad4>
			<quad4 id="14">1135,1136,1055,1054</quad4>
			<quad4 id="15">1216,1217,1136,1135</quad4>
			<quad4 id="16">1297,1298,1217,1216</quad4>
			<quad4 id="17">1378,1379,1298,1297</quad4>
			<quad4 id="18">83,84,3,2</quad4>
			<quad4 id="19">164,165,84,83</quad4>
			<quad4 id="20">245,246,165,164</quad4>
<!-- ... 4670 like lines cut -->
		</Surface>
		<Surface name="SecondarySurface03">
			<tri3 id="1">12823,12817,12818</tri3>
			<tri3 id="2">12818,12824,12823</tri3>
			<tri3 id="3">12825,12817,12823</tri3>
			<tri3 id="4">12825,12819,12817</tri3>
			<tri3 id="5">12825,12826,12819</tri3>
			<tri3 id="6">12826,12820,12819</tri3>
			<tri3 id="7">12821,12820,12826</tri3>
			<tri3 id="8">12826,12827,12821</tri3>
			<tri3 id="9">12822,12821,12827</tri3>
			<tri3 id="10">12827,12828,12822</tri3>
			<tri3 id="11">12823,12824,12830</tri3>
			<tri3 id="12">12830,12831,12823</tri3>
			<tri3 id="13">12823,12831,12832</tri3>
			<tri3 id="14">12826,12825,12832</tri3>
			<tri3 id="15">12832,12833,12826</tri3>
			<tri3 id="16">12834,12826,12833</tri3>
			<tri3 id="17">12834,12827,12826</tri3>
			<tri3 id="18">12834,12828,12827</tri3>
			<tri3 id="19">12836,12835,12829</tri3>
			<tri3 id="20">12835,12837,12829</tri3>
<!-- ... 3392 like lines cut -->
		</Surface>
		<SurfacePair name="SlidingContact01">
			<primary>PrimarySurface01</primary>
			<secondary>SecondarySurface01</secondary>
		</SurfacePair>
		<SurfacePair name="SlidingContact02">
			<primary>PrimarySurface02</primary>
			<secondary>SecondarySurface02</secondary>
		</SurfacePair>
		<SurfacePair name="SlidingContact03">
			<primary>PrimarySurface03</primary>
			<secondary>SecondarySurface03</secondary>
		</SurfacePair>
		<DiscreteSet name="Spring01">
			<delem>4071,9702</delem>
		</DiscreteSet>
		<DiscreteSet name="Spring02">
			<delem>4101,9697</delem>
		</DiscreteSet>
		<DiscreteSet name="Spring03">
			<delem>4131,9698</delem>
		</DiscreteSet>
		<DiscreteSet name="Spring04">
			<delem>4161,9691</delem>
		</DiscreteSet>
	</Mesh>
	<MeshDomains>
		<ShellDomain name="Part11" mat="Tendon">
			<shell_thickness>0</shell_thickness>
		</ShellDomain>
		<ShellDomain name="Part12" mat="Fiber">
			<shell_thickness>0</shell_thickness>
		</ShellDomain>
		<ShellDomain name="Part13" mat="Thin tendon">
			<shell_thickness>0</shell_thickness>
		</ShellDomain>
		<ShellDomain name="Part14" mat="Insertion">
			<shell_thickness>0</shell_thickness>
		</ShellDomain>
		<ShellDomain name="Part15" mat="Material 5">
			<shell_thickness>0</shell_thickness>
		</ShellDomain>
		<ShellDomain name="Part16" mat="Material 6">
			<shell_thickness>0</shell_thickness>
		</ShellDomain>
		<ShellDomain name="Part17" mat="Material 7">
			<shell_thickness>0</shell_thickness>
		</ShellDomain>
		<ShellDomain name="Part18" mat="Material 8">
			<shell_thickness>0</shell_thickness>
		</ShellDomain>
	</MeshDomains>
	<MeshData>
		<ElementData type="shell thickness" elem_set="Part11">
			<e lid="1">0.65,0.65,0.65,0.65</e>
			<e lid="2">0.65,0.65,0.65,0.65</e>
			<e lid="3">0.65,0.65,0.65,0.65</e>
			<e lid="4">0.65,0.65,0.65,0.65</e>
			<e lid="5">0.65,0.65,0.65,0.65</e>
			<e lid="6">0.65,0.65,0.65,0.65</e>
			<e lid="7">0.65,0.65,0.65,0.65</e>
			<e lid="8">0.65,0.65,0.65,0.65</e>
			<e lid="9">0.65,0.65,0.65,0.65</e>
			<e lid="10">0.65,0.65,0.65,0.65</e>
			<e lid="11">0.65,0.65,0.65,0.65</e>
			<e lid="12">0.65,0.65,0.65,0.65</e>
			<e lid="13">0.65,0.65,0.65,0.65</e>
			<e lid="14">0.65,0.65,0.65,0.65</e>
			<e lid="15">0.65,0.65,0.65,0.65</e>
			<e lid="16">0.65,0.65,0.65,0.65</e>
			<e lid="17">0.65,0.65,0.65,0.65</e>
			<e lid="18">0.65,0.65,0.65,0.65</e>
			<e lid="19">0.65,0.65,0.65,0.65</e>
			<e lid="20">0.65,0.65,0.65,0.65</e>
<!-- ... 3179 like lines cut -->
		</ElementData>
		<ElementData type="shell thickness" elem_set="Part12">
			<e lid="1">0.65,0.65,0.65,0.65</e>
			<e lid="2">0.65,0.65,0.65,0.65</e>
			<e lid="3">0.65,0.65,0.65,0.65</e>
			<e lid="4">0.65,0.65,0.65,0.65</e>
			<e lid="5">0.65,0.65,0.65,0.65</e>
			<e lid="6">0.65,0.65,0.65,0.65</e>
			<e lid="7">0.65,0.65,0.65,0.65</e>
			<e lid="8">0.65,0.65,0.65,0.65</e>
			<e lid="9">0.65,0.65,0.65,0.65</e>
			<e lid="10">0.65,0.65,0.65,0.65</e>
			<e lid="11">0.65,0.65,0.65,0.65</e>
			<e lid="12">0.65,0.65,0.65,0.65</e>
			<e lid="13">0.65,0.65,0.65,0.65</e>
			<e lid="14">0.65,0.65,0.65,0.65</e>
			<e lid="15">0.65,0.65,0.65,0.65</e>
			<e lid="16">0.65,0.65,0.65,0.65</e>
			<e lid="17">0.65,0.65,0.65,0.65</e>
			<e lid="18">0.65,0.65,0.65,0.65</e>
			<e lid="19">0.65,0.65,0.65,0.65</e>
			<e lid="20">0.65,0.65,0.65,0.65</e>
<!-- ... 1195 like lines cut -->
		</ElementData>
		<ElementData type="shell thickness" elem_set="Part13">
			<e lid="1">0.65,0.65,0.65,0.65</e>
			<e lid="2">0.65,0.65,0.65,0.65</e>
			<e lid="3">0.65,0.65,0.65,0.65</e>
			<e lid="4">0.65,0.65,0.65,0.65</e>
			<e lid="5">0.65,0.65,0.65,0.65</e>
			<e lid="6">0.65,0.65,0.65,0.65</e>
			<e lid="7">0.65,0.65,0.65,0.65</e>
			<e lid="8">0.65,0.65,0.65,0.65</e>
			<e lid="9">0.65,0.65,0.65,0.65</e>
			<e lid="10">0.65,0.65,0.65,0.65</e>
			<e lid="11">0.65,0.65,0.65,0.65</e>
			<e lid="12">0.65,0.65,0.65,0.65</e>
			<e lid="13">0.65,0.65,0.65,0.65</e>
			<e lid="14">0.65,0.65,0.65,0.65</e>
			<e lid="15">0.65,0.65,0.65,0.65</e>
			<e lid="16">0.65,0.65,0.65,0.65</e>
			<e lid="17">0.65,0.65,0.65,0.65</e>
			<e lid="18">0.65,0.65,0.65,0.65</e>
			<e lid="19">0.65,0.65,0.65,0.65</e>
			<e lid="20">0.65,0.65,0.65,0.65</e>
<!-- ... 224 like lines cut -->
		</ElementData>
		<ElementData type="shell thickness" elem_set="Part14">
			<e lid="1">0.65,0.65,0.65,0.65</e>
			<e lid="2">0.65,0.65,0.65,0.65</e>
			<e lid="3">0.65,0.65,0.65,0.65</e>
			<e lid="4">0.65,0.65,0.65,0.65</e>
			<e lid="5">0.65,0.65,0.65,0.65</e>
			<e lid="6">0.65,0.65,0.65,0.65</e>
			<e lid="7">0.65,0.65,0.65,0.65</e>
			<e lid="8">0.65,0.65,0.65,0.65</e>
			<e lid="9">0.65,0.65,0.65,0.65</e>
			<e lid="10">0.65,0.65,0.65,0.65</e>
			<e lid="11">0.65,0.65,0.65,0.65</e>
			<e lid="12">0.65,0.65,0.65,0.65</e>
			<e lid="13">0.65,0.65,0.65,0.65</e>
			<e lid="14">0.65,0.65,0.65,0.65</e>
			<e lid="15">0.65,0.65,0.65,0.65</e>
			<e lid="16">0.65,0.65,0.65,0.65</e>
			<e lid="17">0.65,0.65,0.65,0.65</e>
			<e lid="18">0.65,0.65,0.65,0.65</e>
			<e lid="19">0.65,0.65,0.65,0.65</e>
			<e lid="20">0.65,0.65,0.65,0.65</e>
<!-- ... 12 like lines cut -->
		</ElementData>
	</MeshData>
	<Boundary>
		<bc name="FixedDisplacement01" node_set="FixedDisplacement01" type="zero displacement">
			<x_dof>0</x_dof>
			<y_dof>1</y_dof>
			<z_dof>0</z_dof>
		</bc>
		<bc name="FixedDisplacement02" node_set="FixedDisplacement02" type="zero displacement">
			<x_dof>1</x_dof>
			<y_dof>0</y_dof>
			<z_dof>0</z_dof>
		</bc>
		<bc name="RigidInterface08" node_set="RigidNodeset 1" type="rigid">
			<rb>Material 8</rb>
		</bc>
		<bc name="RigidInterface07" node_set="RigidNodeset 2" type="rigid">
			<rb>Material 7</rb>
		</bc>
		<bc name="RigidInterface06" node_set="RigidNodeset 3" type="rigid">
			<rb>Material 6</rb>
		</bc>
		<bc name="RigidInterface06" node_set="RigidNodeset 4" type="rigid">
			<rb>Material 6</rb>
		</bc>
	</Boundary>
	<Rigid>
		<rigid_bc name="RigidFixed62" type="rigid_fixed">
			<rb>Material 5</rb>
			<Rx_dof>1</Rx_dof>
			<Ry_dof>1</Ry_dof>
			<Rz_dof>1</Rz_dof>
			<Ru_dof>1</Ru_dof>
			<Rv_dof>1</Rv_dof>
			<Rw_dof>1</Rw_dof>
		</rigid_bc>
		<rigid_bc name="RigidFixed63" type="rigid_fixed">
			<rb>Material 6</rb>
			<Rx_dof>1</Rx_dof>
			<Ry_dof>1</Ry_dof>
			<Rz_dof>1</Rz_dof>
			<Ru_dof>1</Ru_dof>
			<Rv_dof>1</Rv_dof>
			<Rw_dof>1</Rw_dof>
		</rigid_bc>
		<rigid_bc name="RigidFixed64" type="rigid_fixed">
			<rb>Material 7</rb>
			<Rx_dof>1</Rx_dof>
			<Ry_dof>1</Ry_dof>
			<Rz_dof>1</Rz_dof>
			<Ru_dof>1</Ru_dof>
			<Rv_dof>1</Rv_dof>
			<Rw_dof>1</Rw_dof>
		</rigid_bc>
		<rigid_bc name="RigidFixed65" type="rigid_fixed">
			<rb>Material 8</rb>
			<Rx_dof>1</Rx_dof>
			<Ry_dof>1</Ry_dof>
			<Rz_dof>1</Rz_dof>
			<Ru_dof>1</Ru_dof>
			<Rv_dof>1</Rv_dof>
			<Rw_dof>1</Rw_dof>
		</rigid_bc>
	</Rigid>
	<Loads>
		<nodal_load name="ForceLoad01" node_set="ForceNodeset01" type="nodal_force">
			<relative>0</relative>
			<value lc="1">0,0,-0.166667</value>
			<shell_bottom>0</shell_bottom>
		</nodal_load>
		<nodal_load name="ForceLoad02" node_set="ForceNodeset02" type="nodal_force">
			<relative>0</relative>
			<value lc="2">0,0,-0.0714286</value>
			<shell_bottom>0</shell_bottom>
		</nodal_load>
		<nodal_load name="ForceLoad03" node_set="ForceNodeset03" type="nodal_force">
			<relative>0</relative>
			<value lc="3">0,0,-0.166667</value>
			<shell_bottom>0</shell_bottom>
		</nodal_load>
	</Loads>
	<Contact>
		<contact name="SlidingContact01" surface_pair="SlidingContact01" type="sliding-facet-on-facet">
			<laugon>AUGLAG</laugon>
			<penalty>1</penalty>
			<auto_penalty>0</auto_penalty>
			<update_penalty>0</update_penalty>
			<tolerance>0.2</tolerance>
			<two_pass>0</two_pass>
			<gaptol>0</gaptol>
			<minaug>0</minaug>
			<maxaug>10</maxaug>
			<smooth_aug>0</smooth_aug>
			<search_tol>0.01</search_tol>
			<search_radius>0</search_radius>
			<seg_up>0</seg_up>
			<node_reloc>0</node_reloc>
			<knmult>1</knmult>
		</contact>
		<contact name="SlidingContact02" surface_pair="SlidingContact02" type="sliding-facet-on-facet">
			<laugon>AUGLAG</laugon>
			<penalty>1</penalty>
			<auto_penalty>0</auto_penalty>
			<update_penalty>0</update_penalty>
			<tolerance>0.2</tolerance>
			<two_pass>0</two_pass>
			<gaptol>0</gaptol>
			<minaug>0</minaug>
			<maxaug>10</maxaug>
			<smooth_aug>0</smooth_aug>
			<search_tol>0.01</search_tol>
			<search_radius>0</search_radius>
			<seg_up>0</seg_up>
			<node_reloc>0</node_reloc>
			<knmult>1</knmult>
		</contact>
		<contact name="SlidingContact03" surface_pair="SlidingContact03" type="sliding-facet-on-facet">
			<laugon>AUGLAG</laugon>
			<penalty>1</penalty>
			<auto_penalty>0</auto_penalty>
			<update_penalty>0</update_penalty>
			<tolerance>0.2</tolerance>
			<two_pass>0</two_pass>
			<gaptol>0</gaptol>
			<minaug>0</minaug>
			<maxaug>10</maxaug>
			<smooth_aug>0</smooth_aug>
			<search_tol>0.01</search_tol>
			<search_radius>0</search_radius>
			<seg_up>0</seg_up>
			<node_reloc>0</node_reloc>
			<knmult>1</knmult>
		</contact>
	</Contact>
	<Discrete>
		<discrete_material id="1" name="Spring01" type="linear spring">
			<E>3552</E>
		</discrete_material>
		<discrete_material id="2" name="Spring02" type="linear spring">
			<E>3552</E>
		</discrete_material>
		<discrete_material id="3" name="Spring03" type="linear spring">
			<E>3552</E>
		</discrete_material>
		<discrete_material id="4" name="Spring04" type="linear spring">
			<E>3552</E>
		</discrete_material>
		<discrete dmat="1" discrete_set="Spring01"/>
		<discrete dmat="2" discrete_set="Spring02"/>
		<discrete dmat="3" discrete_set="Spring03"/>
		<discrete dmat="4" discrete_set="Spring04"/>
	</Discrete>
	<LoadData>
		<load_controller id="1" name="LC1" type="loadcurve">
			<interpolate>SMOOTH</interpolate>
			<extend>CONSTANT</extend>
			<points>
				<pt>0,0</pt>
				<pt>1,0.25</pt>
			</points>
		</load_controller>
		<load_controller id="2" name="LC2" type="loadcurve">
			<interpolate>SMOOTH</interpolate>
			<extend>CONSTANT</extend>
			<points>
				<pt>0,0</pt>
				<pt>1,12</pt>
			</points>
		</load_controller>
		<load_controller id="3" name="LC3" type="loadcurve">
			<interpolate>SMOOTH</interpolate>
			<extend>CONSTANT</extend>
			<points>
				<pt>0,0</pt>
				<pt>1,0.25</pt>
			</points>
		</load_controller>
	</LoadData>
	<Output>
		<plotfile type="febio">
			<var type="displacement"/>
			<var type="stress"/>
		</plotfile>
	</Output>
</febio_spec>
