<?xml version="1.0" encoding="ISO-8859-1"?>
<!--
Strip biaxial stretching of an elastic sheet with a circular hole.  An initially
square sheet with a circular hole has it's right face stretched in the xdirection
508 units.  The left face is constrained in the xdirection and the upper and
lower faces are constrained in the ydirection.  Quarter symmetry is used.
-->
<febio_spec version="4.0">
	<Module type="solid"/>
	<Control>
		<analysis>STATIC</analysis>
		<time_steps>10</time_steps>
		<step_size>0.1</step_size>
		<plot_zero_state>0</plot_zero_state>
		<plot_range>0,-1</plot_range>
		<plot_level>PLOT_MAJOR_ITRS</plot_level>
		<output_level>OUTPUT_MAJOR_ITRS</output_level>
		<plot_stride>1</plot_stride>
		<adaptor_re_solve>1</adaptor_re_solve>
		<time_stepper type="default">
			<max_retries>10</max_retries>
			<opt_iter>10</opt_iter>
			<dtmin>0.001</dtmin>
			<dtmax>0.1</dtmax>
			<aggressiveness>0</aggressiveness>
			<cutback>0.5</cutback>
			<dtforce>0</dtforce>
		</time_stepper>
		<solver type="solid">
			<symmetric_stiffness>symmetric</symmetric_stiffness>
			<equation_scheme>staggered</equation_scheme>
			<equation_order>default</equation_order>
			<optimize_bw>0</optimize_bw>
			<lstol>0.9</lstol>
			<lsmin>0.01</lsmin>
			<lsiter>5</lsiter>
			<max_refs>15</max_refs>
			<check_zero_diagonal>0</check_zero_diagonal>
			<zero_diagonal_tol>0</zero_diagonal_tol>
			<force_partition>0</force_partition>
			<reform_each_time_step>1</reform_each_time_step>
			<reform_augment>0</reform_augment>
			<diverge_reform>1</diverge_reform>
			<min_residual>1e-20</min_residual>
			<max_residual>0</max_residual>
			<dtol>0.001</dtol>
			<etol>0.01</etol>
			<rtol>0</rtol>
			<rhoi>-2</rhoi>
			<alpha>1</alpha>
			<beta>0.25</beta>
			<gamma>0.5</gamma>
			<logSolve>0</logSolve>
			<arc_length>0</arc_length>
			<arc_length_scale>0</arc_length_scale>
			<qn_method type="BFGS">
				<max_ups>10</max_ups>
				<max_buffer_size>0</max_buffer_size>
				<cycle_buffer>1</cycle_buffer>
				<cmax>100000</cmax>
			</qn_method>
		</solver>
	</Control>
	<Globals>
		<Constants>
			<T>0</T>
			<R>0</R>
			<Fc>0</Fc>
		</Constants>
	</Globals>
	<Material>
		<material id="1" name="Material 1" type="Mooney-Rivlin">
			<density>1</density>
			<k>100</k>
			<pressure_model>default</pressure_model>
			<c1>0.1863</c1>
			<c2>0.00979</c2>
		</material>
	</Material>
	<Mesh>
		<Nodes name="Object01">
			<node id="1">3.589467e-06,6.3487921,-1</node>
			<node id="2">3.589467e-06,6.3487921,1</node>
			<node id="3">0,25.387501,-1</node>
			<node id="4">0,25.387501,1</node>
			<node id="5">0,44.424999,-1</node>
			<node id="6">0,44.424999,1</node>
			<node id="7">0,63.462502,-1</node>
			<node id="8">0,63.462502,1</node>
			<node id="9">0,82.5,-1</node>
			<node id="10">0,82.5,1</node>
			<node id="11">1.238798,6.227828,-1</node>
			<node id="12">1.238798,6.227828,1</node>
			<node id="13">6.0854158,25.296619,-1</node>
			<node id="14">6.0854158,25.296619,1</node>
			<node id="15">10.93194,44.36441,-1</node>
			<node id="16">10.93194,44.36441,1</node>
			<node id="17">15.77847,63.432209,-1</node>
			<node id="18">15.77847,63.432209,1</node>
			<node id="19">20.625,82.5,-1</node>
			<node id="20">20.625,82.5,1</node>
<!-- ... 70 like lines cut -->
		</Nodes>
		<Elements type="hex8" name="Part19">
			<elem id="1">1,11,13,3,2,12,14,4</elem>
			<elem id="2">11,21,23,13,12,22,24,14</elem>
			<elem id="3">21,31,33,23,22,32,34,24</elem>
			<elem id="4">31,41,43,33,32,42,44,34</elem>
			<elem id="5">3,13,15,5,4,14,16,6</elem>
			<elem id="6">13,23,25,15,14,24,26,16</elem>
			<elem id="7">23,33,35,25,24,34,36,26</elem>
			<elem id="8">33,43,45,35,34,44,46,36</elem>
			<elem id="9">5,15,17,7,6,16,18,8</elem>
			<elem id="10">15,25,27,17,16,26,28,18</elem>
			<elem id="11">25,35,37,27,26,36,38,28</elem>
			<elem id="12">35,45,47,37,36,46,48,38</elem>
			<elem id="13">7,17,19,9,8,18,20,10</elem>
			<elem id="14">17,27,29,19,18,28,30,20</elem>
			<elem id="15">27,37,39,29,28,38,40,30</elem>
			<elem id="16">37,47,49,39,38,48,50,40</elem>
			<elem id="17">51,59,61,53,52,60,62,54</elem>
			<elem id="18">59,67,69,61,60,68,70,62</elem>
			<elem id="19">67,75,77,69,68,76,78,70</elem>
			<elem id="20">75,83,85,77,76,84,86,78</elem>
<!-- ... 12 like lines cut -->
		</Elements>
		<NodeSet name="FixedDisplacement01">
			1, 2, 3, 4, 5, 6, 7, 8,
			9, 10
		</NodeSet>
		<NodeSet name="FixedDisplacement02">
			1, 3, 5, 7, 9
		</NodeSet>
		<NodeSet name="FixedDisplacement03">
			9, 10, 19, 20, 29, 30, 39, 40,
			49, 50
		</NodeSet>
		<NodeSet name="FixedDisplacement04">
			51, 52, 59, 60, 67, 68, 75, 76,
			83, 84
		</NodeSet>
		<NodeSet name="FixedDisplacement05">
			1, 11, 21, 31, 41, 51, 53, 55,
			57, 59, 67, 75, 83
		</NodeSet>
		<NodeSet name="PrescribedBC164">
			49, 50, 83, 84, 85, 86, 87, 88,
			89, 90
		</NodeSet>
		<ElementSet name="unnamed_set01">
			1
		</ElementSet>
	</Mesh>
	<MeshDomains>
		<SolidDomain name="Part19" mat="Material 1"/>
	</MeshDomains>
	<Boundary>
		<bc name="FixedDisplacement01" node_set="FixedDisplacement01" type="zero displacement">
			<x_dof>1</x_dof>
			<y_dof>0</y_dof>
			<z_dof>0</z_dof>
		</bc>
		<bc name="FixedDisplacement02" node_set="FixedDisplacement02" type="zero displacement">
			<x_dof>0</x_dof>
			<y_dof>0</y_dof>
			<z_dof>1</z_dof>
		</bc>
		<bc name="FixedDisplacement03" node_set="FixedDisplacement03" type="zero displacement">
			<x_dof>0</x_dof>
			<y_dof>1</y_dof>
			<z_dof>0</z_dof>
		</bc>
		<bc name="FixedDisplacement04" node_set="FixedDisplacement04" type="zero displacement">
			<x_dof>0</x_dof>
			<y_dof>1</y_dof>
			<z_dof>0</z_dof>
		</bc>
		<bc name="FixedDisplacement05" node_set="FixedDisplacement05" type="zero displacement">
			<x_dof>0</x_dof>
			<y_dof>0</y_dof>
			<z_dof>1</z_dof>
		</bc>
		<bc name="PrescribedBC164" node_set="PrescribedBC164" type="prescribed displacement">
			<dof>x</dof>
			<value lc="1">1</value>
			<relative>0</relative>
		</bc>
	</Boundary>
	<LoadData>
		<load_controller id="1" name="LC1" type="loadcurve">
			<interpolate>SMOOTH</interpolate>
			<extend>CONSTANT</extend>
			<points>
				<pt>0,0</pt>
				<pt>1,508</pt>
			</points>
		</load_controller>
	</LoadData>
	<Output>
		<plotfile type="febio">
			<var type="displacement"/>
			<var type="stress"/>
		</plotfile>
	</Output>
</febio_spec>
