<?xml version="1.0" encoding="ISO-8859-1"?>
<febio_spec version="2.5">
	<Module type="solid"/>
	<Control>
		<time_steps>100</time_steps>
		<step_size>0.01</step_size>
		<max_refs>15</max_refs>
		<max_ups>10</max_ups>
		<diverge_reform>1</diverge_reform>
		<reform_each_time_step>1</reform_each_time_step>
		<dtol>0.001</dtol>
		<etol>0.01</etol>
		<rtol>0</rtol>
		<lstol>0.9</lstol>
		<min_residual>1e-020</min_residual>
		<qnmethod>0</qnmethod>
		<time_stepper>
			<dtmin>0.01</dtmin>
			<dtmax>0.1</dtmax>
			<max_retries>5</max_retries>
			<opt_iter>10</opt_iter>
		</time_stepper>
		<analysis type="static"/>
	</Control>
	<Globals>
		<Constants>
			<T>0</T>
			<R>0</R>
			<Fc>0</Fc>
		</Constants>
	</Globals>
	<Material>
		<material id="1" name="Material 2" type="isotropic elastic">
			<density>1</density>
			<E>100</E>
			<v>0</v>
		</material>
	</Material>
	<Geometry>
		<Nodes name="mi31">
			<node id="1">-5.0000000e+001,-7.3900002e+001, 0.0000000e+000</node>
			<node id="2">-5.0000000e+001,-7.3900002e+001, 2.5000000e+001</node>
			<node id="3">-5.0000000e+001,-7.3900002e+001, 5.0000000e+001</node>
			<node id="4">-5.0000000e+001,-7.3900002e+001, 7.5000000e+001</node>
			<node id="5">-5.0000000e+001,-7.3900002e+001, 1.0000000e+002</node>
			<node id="6">-5.0000000e+001,-7.3900002e+001, 1.2500000e+002</node>
			<node id="7">-5.0000000e+001,-7.3900002e+001, 1.5000000e+002</node>
			<node id="8">-5.0000000e+001,-7.3900002e+001, 1.7500000e+002</node>
			<node id="9">-5.0000000e+001,-7.3900002e+001, 2.0000000e+002</node>
			<node id="10">-5.0000000e+001,-7.3900002e+001, 2.2500000e+002</node>
			<node id="11">-5.0000000e+001,-7.3900002e+001, 2.5000000e+002</node>
			<node id="12">-5.0000000e+001,-7.3900002e+001, 2.7500000e+002</node>
			<node id="13">-5.0000000e+001,-7.3900002e+001, 3.0000000e+002</node>
			<node id="14">-5.0000000e+001,-7.3900002e+001, 3.2500000e+002</node>
			<node id="15">-5.0000000e+001,-7.3900002e+001, 3.5000000e+002</node>
			<node id="16">-5.0000000e+001,-7.3900002e+001, 3.7500000e+002</node>
			<node id="17">-5.0000000e+001,-7.3900002e+001, 4.0000000e+002</node>
			<node id="18">-5.0000000e+001,-7.3900002e+001, 4.2500000e+002</node>
			<node id="19">-5.0000000e+001,-7.3900002e+001, 4.5000000e+002</node>
			<node id="20">-5.0000000e+001,-7.3900002e+001, 4.7500000e+002</node>
<!-- ... 1584 like lines cut -->
		</Nodes>
		<Elements type="hex8" mat="1" name="Part20">
			<elem id="1">     1,   803,  1204,   402,     2,   804,  1205,   403</elem>
			<elem id="2">     2,   804,  1205,   403,     3,   805,  1206,   404</elem>
			<elem id="3">     3,   805,  1206,   404,     4,   806,  1207,   405</elem>
			<elem id="4">     4,   806,  1207,   405,     5,   807,  1208,   406</elem>
			<elem id="5">     5,   807,  1208,   406,     6,   808,  1209,   407</elem>
			<elem id="6">     6,   808,  1209,   407,     7,   809,  1210,   408</elem>
			<elem id="7">     7,   809,  1210,   408,     8,   810,  1211,   409</elem>
			<elem id="8">     8,   810,  1211,   409,     9,   811,  1212,   410</elem>
			<elem id="9">     9,   811,  1212,   410,    10,   812,  1213,   411</elem>
			<elem id="10">    10,   812,  1213,   411,    11,   813,  1214,   412</elem>
			<elem id="11">    11,   813,  1214,   412,    12,   814,  1215,   413</elem>
			<elem id="12">    12,   814,  1215,   413,    13,   815,  1216,   414</elem>
			<elem id="13">    13,   815,  1216,   414,    14,   816,  1217,   415</elem>
			<elem id="14">    14,   816,  1217,   415,    15,   817,  1218,   416</elem>
			<elem id="15">    15,   817,  1218,   416,    16,   818,  1219,   417</elem>
			<elem id="16">    16,   818,  1219,   417,    17,   819,  1220,   418</elem>
			<elem id="17">    17,   819,  1220,   418,    18,   820,  1221,   419</elem>
			<elem id="18">    18,   820,  1221,   419,    19,   821,  1222,   420</elem>
			<elem id="19">    19,   821,  1222,   420,    20,   822,  1223,   421</elem>
			<elem id="20">    20,   822,  1223,   421,    21,   823,  1224,   422</elem>
<!-- ... 380 like lines cut -->
		</Elements>
		<NodeSet name="FixedDisplacement01">
			<node id="1"/>
			<node id="402"/>
			<node id="803"/>
			<node id="1204"/>
		</NodeSet>
		<NodeSet name="FixedDisplacement02">
			<node id="1"/>
			<node id="402"/>
			<node id="803"/>
			<node id="1204"/>
		</NodeSet>
		<NodeSet name="FixedDisplacement03">
			<node id="1"/>
			<node id="402"/>
			<node id="803"/>
			<node id="1204"/>
		</NodeSet>
		<NodeSet name="ForceNodeset07">
			<node id="401"/>
			<node id="1203"/>
		</NodeSet>
		<ElementSet name="unnamed_set01">
			<elem id="140"/>
		</ElementSet>
	</Geometry>
	<Boundary>
		<fix bc="z" node_set="FixedDisplacement01"/>
		<fix bc="y" node_set="FixedDisplacement02"/>
		<fix bc="x" node_set="FixedDisplacement03"/>
	</Boundary>
	<Loads>
		<nodal_load bc="y" node_set="ForceNodeset07">
			<scale lc="1">1</scale>
		</nodal_load>
	</Loads>
	<LoadData>
		<loadcurve id="1" type="linear">
			<point>0,0</point>
			<point>1,134.675</point>
		</loadcurve>
	</LoadData>
	<Output>
		<plotfile type="febio"/>
		<logfile>
			<element_data data="sy" elem_set="unnamed_set01"/>
		</logfile>
	</Output>
</febio_spec>
