<?xml version="1.0" encoding="ISO-8859-1"?>
<!--
This problem demonstrates bone remodeling using the Weinans Huiskes remodeling material.
-->
<febio_spec version="4.0">
	<Module type="solid"/>
	<Control>
		<analysis>STATIC</analysis>
		<time_steps>100</time_steps>
		<step_size>0.1</step_size>
		<plot_zero_state>0</plot_zero_state>
		<plot_range>0,-1</plot_range>
		<plot_level>PLOT_MAJOR_ITRS</plot_level>
		<output_level>OUTPUT_MAJOR_ITRS</output_level>
		<plot_stride>1</plot_stride>
		<adaptor_re_solve>1</adaptor_re_solve>
		<time_stepper type="default">
			<max_retries>5</max_retries>
			<opt_iter>10</opt_iter>
			<dtmin>0.01</dtmin>
			<dtmax>0.1</dtmax>
			<aggressiveness>0</aggressiveness>
			<cutback>0.5</cutback>
			<dtforce>0</dtforce>
		</time_stepper>
		<solver type="solid">
			<symmetric_stiffness>symmetric</symmetric_stiffness>
			<equation_scheme>staggered</equation_scheme>
			<equation_order>default</equation_order>
			<optimize_bw>0</optimize_bw>
			<lstol>0.9</lstol>
			<lsmin>0.01</lsmin>
			<lsiter>5</lsiter>
			<max_refs>15</max_refs>
			<check_zero_diagonal>0</check_zero_diagonal>
			<zero_diagonal_tol>0</zero_diagonal_tol>
			<force_partition>0</force_partition>
			<reform_each_time_step>1</reform_each_time_step>
			<reform_augment>0</reform_augment>
			<diverge_reform>1</diverge_reform>
			<min_residual>1e-20</min_residual>
			<max_residual>0</max_residual>
			<dtol>0.001</dtol>
			<etol>0.01</etol>
			<rtol>0</rtol>
			<rhoi>-2</rhoi>
			<alpha>1</alpha>
			<beta>0.25</beta>
			<gamma>0.5</gamma>
			<logSolve>0</logSolve>
			<arc_length>0</arc_length>
			<arc_length_scale>0</arc_length_scale>
			<qn_method type="BFGS">
				<max_ups>0</max_ups>
				<max_buffer_size>0</max_buffer_size>
				<cycle_buffer>1</cycle_buffer>
				<cmax>100000</cmax>
			</qn_method>
		</solver>
	</Control>
	<Globals>
		<Constants>
			<T>0</T>
			<R>0</R>
			<Fc>0</Fc>
		</Constants>
	</Globals>
	<Material>
		<material id="1" name="Weinans Huiskes remodeling" type="remodeling solid">
			<density>1</density>
			<min_density>0.1</min_density>
			<max_density>1.74</max_density>
			<solid type="Carter-Hayes (old)">
				<density>1.74</density>
				<c>3.79e+10</c>
				<gamma>3</gamma>
				<v>0.3</v>
			</solid>
			<supply type="Huiskes-supply">
				<B>1e-05</B>
				<k>40000</k>
			</supply>
		</material>
		<material id="2" name="Side Plate" type="neo-Hookean">
			<density>1</density>
			<E>1.7e+11</E>
			<v>0.3</v>
		</material>
	</Material>
	<Mesh>
		<Nodes name="Object01">
			<node id="1">0,0,1.2</node>
			<node id="2">-0.154,9.037,1.2</node>
			<node id="3">-0.006695652,0.392913,1.2</node>
			<node id="4">-0.0133913,0.7858261,1.2</node>
			<node id="5">-0.02008696,1.178739,1.2</node>
			<node id="6">-0.02678261,1.571652,1.2</node>
			<node id="7">-0.03347826,1.964565,1.2</node>
			<node id="8">-0.04017391,2.357478,1.2</node>
			<node id="9">-0.04686957,2.750391,1.2</node>
			<node id="10">-0.05356522,3.143304,1.2</node>
			<node id="11">-0.06026087,3.536217,1.2</node>
			<node id="12">-0.06695652,3.92913,1.2</node>
			<node id="13">-0.07365217,4.322043,1.2</node>
			<node id="14">-0.08034783,4.714957,1.2</node>
			<node id="15">-0.08704348,5.10787,1.2</node>
			<node id="16">-0.09373913,5.500783,1.2</node>
			<node id="17">-0.1004348,5.893696,1.2</node>
			<node id="18">-0.1071304,6.286609,1.2</node>
			<node id="19">-0.1138261,6.679522,1.2</node>
			<node id="20">-0.1205217,7.072435,1.2</node>
<!-- ... 1893 like lines cut -->
		</Nodes>
		<Elements type="hex8" name="Part1">
			<elem id="1">585,724,731,725,25,54,147,26</elem>
			<elem id="2">724,723,732,731,54,53,148,147</elem>
			<elem id="3">723,722,733,732,53,52,149,148</elem>
			<elem id="4">722,721,734,733,52,51,150,149</elem>
			<elem id="5">721,720,735,734,51,50,151,150</elem>
			<elem id="6">720,719,736,735,50,49,152,151</elem>
			<elem id="7">719,718,737,736,49,48,153,152</elem>
			<elem id="8">718,717,738,737,48,47,154,153</elem>
			<elem id="9">717,716,739,738,47,46,155,154</elem>
			<elem id="10">716,715,740,739,46,45,156,155</elem>
			<elem id="11">715,714,741,740,45,44,157,156</elem>
			<elem id="12">714,713,742,741,44,43,158,157</elem>
			<elem id="13">713,712,743,742,43,42,159,158</elem>
			<elem id="14">712,711,744,743,42,41,160,159</elem>
			<elem id="15">711,710,745,744,41,40,161,160</elem>
			<elem id="16">710,709,746,745,40,39,162,161</elem>
			<elem id="17">709,708,747,746,39,38,163,162</elem>
			<elem id="18">708,707,748,747,38,37,164,163</elem>
			<elem id="19">707,706,749,748,37,36,165,164</elem>
			<elem id="20">706,705,750,749,36,35,166,165</elem>
<!-- ... 490 like lines cut -->
		</Elements>
		<Elements type="hex8" name="Part2">
			<elem id="511">1543,1551,1604,1549,585,724,1176,725</elem>
			<elem id="512">1551,1552,1605,1604,724,723,1177,1176</elem>
			<elem id="513">1552,1553,1606,1605,723,722,1178,1177</elem>
			<elem id="514">1553,1554,1607,1606,722,721,1179,1178</elem>
			<elem id="515">1554,1555,1608,1607,721,720,1180,1179</elem>
			<elem id="516">1555,1556,1609,1608,720,719,1181,1180</elem>
			<elem id="517">1556,1557,1610,1609,719,718,1182,1181</elem>
			<elem id="518">1557,1558,1611,1610,718,717,1183,1182</elem>
			<elem id="519">1558,1559,1612,1611,717,716,1184,1183</elem>
			<elem id="520">1559,1560,1613,1612,716,715,1185,1184</elem>
			<elem id="521">1560,1561,1614,1613,715,714,1186,1185</elem>
			<elem id="522">1561,1562,1615,1614,714,713,1187,1186</elem>
			<elem id="523">1562,1563,1616,1615,713,712,1188,1187</elem>
			<elem id="524">1563,1564,1617,1616,712,711,1189,1188</elem>
			<elem id="525">1564,1565,1618,1617,711,710,1190,1189</elem>
			<elem id="526">1565,1566,1619,1618,710,709,1191,1190</elem>
			<elem id="527">1566,1567,1620,1619,709,708,1192,1191</elem>
			<elem id="528">1567,1568,1621,1620,708,707,1193,1192</elem>
			<elem id="529">1568,1569,1622,1621,707,706,1194,1193</elem>
			<elem id="530">1569,1570,1623,1622,706,705,1195,1194</elem>
<!-- ... 348 like lines cut -->
		</Elements>
		<NodeSet name="FixedDisplacement01">
			1, 25, 26, 27, 28, 29, 30, 31,
			585, 587, 725, 726, 727, 728, 729, 730,
			1520, 1543, 1544, 1545, 1546, 1547, 1548, 1549
		</NodeSet>
		<NodeSet name="FixedDisplacement02">
			1, 2, 3, 4, 5, 6, 7, 8,
			9, 10, 11, 12, 13, 14, 15, 16,
			17, 18, 19, 20, 21, 22, 23, 24,
			25, 26, 27, 28, 29, 30, 31, 32,
			33, 34, 35, 36, 37, 38, 39, 40,
			41, 42, 43, 44, 45, 46, 47, 48,
			49, 50, 51, 52, 53, 54, 55, 56,
			57, 58, 59, 60, 61, 62, 63, 64,
			65, 66, 67, 68, 69, 70, 71, 72,
			73, 74, 75, 76, 77, 78, 79, 80,
			81, 82, 83, 84, 85, 86, 87, 88,
			89, 90, 91, 92, 93, 94, 95, 96,
			97, 98, 99, 100, 101, 102, 103, 104,
			105, 106, 107, 108, 109, 110, 111, 112,
			113, 114, 115, 116, 117, 118, 119, 120,
			121, 122, 123, 124, 125, 126, 127, 128,
			129, 130, 131, 132, 133, 134, 135, 136,
			137, 138, 139, 140, 141, 142, 143, 144,
			145, 146, 147, 148, 149, 150, 151, 152,
			153, 154, 155, 156, 157, 158, 159, 160,
<!-- ... 53 like lines cut -->
		</NodeSet>
		<NodeSet name="FixedDisplacement03">
			1, 587, 1520
		</NodeSet>
		<NodeSet name="ForceNodeset01">
			105, 649
		</NodeSet>
		<NodeSet name="ForceNodeset02">
			105, 649
		</NodeSet>
		<NodeSet name="ForceNodeset03">
			101, 653
		</NodeSet>
		<NodeSet name="ForceNodeset04">
			101, 653
		</NodeSet>
		<NodeSet name="ForceNodeset05">
			109, 645
		</NodeSet>
		<NodeSet name="ForceNodeset06">
			109, 645
		</NodeSet>
		<NodeSet name="ForceNodeset07">
			89, 670
		</NodeSet>
		<NodeSet name="ForceNodeset08">
			89, 670
		</NodeSet>
		<ElementSet name="unnamed_set01">
			574
		</ElementSet>
	</Mesh>
	<MeshDomains>
		<SolidDomain name="Part1" mat="Weinans Huiskes remodeling"/>
		<SolidDomain name="Part2" mat="Side Plate"/>
	</MeshDomains>
	<Boundary>
		<bc name="FixedDisplacement01" node_set="FixedDisplacement01" type="zero displacement">
			<x_dof>0</x_dof>
			<y_dof>1</y_dof>
			<z_dof>0</z_dof>
		</bc>
		<bc name="FixedDisplacement02" node_set="FixedDisplacement02" type="zero displacement">
			<x_dof>0</x_dof>
			<y_dof>0</y_dof>
			<z_dof>1</z_dof>
		</bc>
		<bc name="FixedDisplacement03" node_set="FixedDisplacement03" type="zero displacement">
			<x_dof>1</x_dof>
			<y_dof>0</y_dof>
			<z_dof>0</z_dof>
		</bc>
	</Boundary>
	<Loads>
		<nodal_load name="ForceLoad01" node_set="ForceNodeset01" type="nodal_force">
			<relative>0</relative>
			<value lc="1">47120000,0,0</value>
			<shell_bottom>0</shell_bottom>
		</nodal_load>
		<nodal_load name="ForceLoad02" node_set="ForceNodeset02" type="nodal_force">
			<relative>0</relative>
			<value lc="2">0,-105800000,0</value>
			<shell_bottom>0</shell_bottom>
		</nodal_load>
		<nodal_load name="ForceLoad03" node_set="ForceNodeset03" type="nodal_force">
			<relative>0</relative>
			<value lc="3">-14990000,0,0</value>
			<shell_bottom>0</shell_bottom>
		</nodal_load>
		<nodal_load name="ForceLoad04" node_set="ForceNodeset04" type="nodal_force">
			<relative>0</relative>
			<value lc="4">0,-55930000,0</value>
			<shell_bottom>0</shell_bottom>
		</nodal_load>
		<nodal_load name="ForceLoad05" node_set="ForceNodeset05" type="nodal_force">
			<relative>0</relative>
			<value lc="5">64170000,0,0</value>
			<shell_bottom>0</shell_bottom>
		</nodal_load>
		<nodal_load name="ForceLoad06" node_set="ForceNodeset06" type="nodal_force">
			<relative>0</relative>
			<value lc="6">0,-43280000,0</value>
			<shell_bottom>0</shell_bottom>
		</nodal_load>
		<nodal_load name="ForceLoad07" node_set="ForceNodeset07" type="nodal_force">
			<relative>0</relative>
			<value lc="7">-27470000,0,0</value>
			<shell_bottom>0</shell_bottom>
		</nodal_load>
		<nodal_load name="ForceLoad08" node_set="ForceNodeset08" type="nodal_force">
			<relative>0</relative>
			<value lc="8">0,67560000,0</value>
			<shell_bottom>0</shell_bottom>
		</nodal_load>
	</Loads>
	<LoadData>
		<load_controller id="1" name="LC1" type="loadcurve">
			<interpolate>SMOOTH</interpolate>
			<extend>CONSTANT</extend>
			<points>
				<pt>0,0</pt>
				<pt>1,1</pt>
			</points>
		</load_controller>
		<load_controller id="2" name="LC2" type="loadcurve">
			<interpolate>SMOOTH</interpolate>
			<extend>CONSTANT</extend>
			<points>
				<pt>0,0</pt>
				<pt>1,1</pt>
			</points>
		</load_controller>
		<load_controller id="3" name="LC3" type="loadcurve">
			<interpolate>SMOOTH</interpolate>
			<extend>CONSTANT</extend>
			<points>
				<pt>0,0</pt>
				<pt>1,1</pt>
			</points>
		</load_controller>
		<load_controller id="4" name="LC4" type="loadcurve">
			<interpolate>SMOOTH</interpolate>
			<extend>CONSTANT</extend>
			<points>
				<pt>0,0</pt>
				<pt>1,1</pt>
			</points>
		</load_controller>
		<load_controller id="5" name="LC5" type="loadcurve">
			<interpolate>SMOOTH</interpolate>
			<extend>CONSTANT</extend>
			<points>
				<pt>0,0</pt>
				<pt>1,1</pt>
			</points>
		</load_controller>
		<load_controller id="6" name="LC6" type="loadcurve">
			<interpolate>SMOOTH</interpolate>
			<extend>CONSTANT</extend>
			<points>
				<pt>0,0</pt>
				<pt>1,1</pt>
			</points>
		</load_controller>
		<load_controller id="7" name="LC7" type="loadcurve">
			<interpolate>SMOOTH</interpolate>
			<extend>CONSTANT</extend>
			<points>
				<pt>0,0</pt>
				<pt>1,1</pt>
			</points>
		</load_controller>
		<load_controller id="8" name="LC8" type="loadcurve">
			<interpolate>SMOOTH</interpolate>
			<extend>CONSTANT</extend>
			<points>
				<pt>0,0</pt>
				<pt>1,1</pt>
			</points>
		</load_controller>
	</LoadData>
	<Output>
		<plotfile type="febio">
			<var type="density"/>
			<var type="displacement"/>
			<var type="relative volume"/>
			<var type="specific strain energy"/>
			<var type="strain energy density"/>
			<var type="stress"/>
		</plotfile>
	</Output>
</febio_spec>
