<?xml version="1.0" encoding="ISO-8859-1"?>
<!--
This is an example file that uses the "log-solve" feature developed by Ankush Aggarwal.
This model also uses the new (in 2.8) dtforce parameter that forces the time step to
be the max time step. 
#time steps = 2
#eq iters   = 11
#rhs eval   = 13
#stiffness  = 11
nodal displacement at time = 1 of node 5200
0.0657487, -0.0104136, -0.120072
-->
<febio_spec version="2.5">
	<Module type="solid"/>
	<Globals>
		<Constants>
			<T>0</T>
			<R>0</R>
			<Fc>0</Fc>
		</Constants>
	</Globals>
	<Material>
		<material id="1" name="tissue" type="Veronda-Westmann">
			<density>1</density>
			<c1>0.1</c1>
			<c2>50</c2>
			<k>100</k>
		</material>
	</Material>
	<Geometry>
		<Nodes name="tube">
			<node id="1"> 7.0000000e-001, 0.0000000e+000, 0.0000000e+000</node>
			<node id="2"> 7.7500000e-001, 0.0000000e+000, 0.0000000e+000</node>
			<node id="3"> 8.5000000e-001, 0.0000000e+000, 0.0000000e+000</node>
			<node id="4"> 9.2500000e-001, 0.0000000e+000, 0.0000000e+000</node>
			<node id="5"> 1.0000000e+000, 0.0000000e+000, 0.0000000e+000</node>
			<node id="6"> 6.9138184e-001, 1.0950412e-001, 0.0000000e+000</node>
			<node id="7"> 7.6545846e-001, 1.2123671e-001, 0.0000000e+000</node>
			<node id="8"> 8.3953509e-001, 1.3296929e-001, 0.0000000e+000</node>
			<node id="9"> 9.1361172e-001, 1.4470188e-001, 0.0000000e+000</node>
			<node id="10"> 9.8768834e-001, 1.5643446e-001, 0.0000000e+000</node>
			<node id="11"> 6.6573956e-001, 2.1631189e-001, 0.0000000e+000</node>
			<node id="12"> 7.3706880e-001, 2.3948817e-001, 0.0000000e+000</node>
			<node id="13"> 8.0839804e-001, 2.6266444e-001, 0.0000000e+000</node>
			<node id="14"> 8.7972728e-001, 2.8584072e-001, 0.0000000e+000</node>
			<node id="15"> 9.5105652e-001, 3.0901699e-001, 0.0000000e+000</node>
			<node id="16"> 6.2370457e-001, 3.1779334e-001, 0.0000000e+000</node>
			<node id="17"> 6.9053006e-001, 3.5184263e-001, 0.0000000e+000</node>
			<node id="18"> 7.5735555e-001, 3.8589192e-001, 0.0000000e+000</node>
			<node id="19"> 8.2418104e-001, 4.1994121e-001, 0.0000000e+000</node>
			<node id="20"> 8.9100653e-001, 4.5399049e-001, 0.0000000e+000</node>
<!-- ... 5180 like lines cut -->
		</Nodes>
		<Elements type="hex8" mat="1" name="Part1">
			<elem id="1">     1,     2,     7,     6,   201,   202,   207,   206</elem>
			<elem id="2">     2,     3,     8,     7,   202,   203,   208,   207</elem>
			<elem id="3">     3,     4,     9,     8,   203,   204,   209,   208</elem>
			<elem id="4">     4,     5,    10,     9,   204,   205,   210,   209</elem>
			<elem id="5">     6,     7,    12,    11,   206,   207,   212,   211</elem>
			<elem id="6">     7,     8,    13,    12,   207,   208,   213,   212</elem>
			<elem id="7">     8,     9,    14,    13,   208,   209,   214,   213</elem>
			<elem id="8">     9,    10,    15,    14,   209,   210,   215,   214</elem>
			<elem id="9">    11,    12,    17,    16,   211,   212,   217,   216</elem>
			<elem id="10">    12,    13,    18,    17,   212,   213,   218,   217</elem>
			<elem id="11">    13,    14,    19,    18,   213,   214,   219,   218</elem>
			<elem id="12">    14,    15,    20,    19,   214,   215,   220,   219</elem>
			<elem id="13">    16,    17,    22,    21,   216,   217,   222,   221</elem>
			<elem id="14">    17,    18,    23,    22,   217,   218,   223,   222</elem>
			<elem id="15">    18,    19,    24,    23,   218,   219,   224,   223</elem>
			<elem id="16">    19,    20,    25,    24,   219,   220,   225,   224</elem>
			<elem id="17">    21,    22,    27,    26,   221,   222,   227,   226</elem>
			<elem id="18">    22,    23,    28,    27,   222,   223,   228,   227</elem>
			<elem id="19">    23,    24,    29,    28,   223,   224,   229,   228</elem>
			<elem id="20">    24,    25,    30,    29,   224,   225,   230,   229</elem>
<!-- ... 3980 like lines cut -->
		</Elements>
		<NodeSet name="FixedDisplacement01">
			<node id="1"/>
			<node id="2"/>
			<node id="3"/>
			<node id="4"/>
			<node id="5"/>
			<node id="6"/>
			<node id="7"/>
			<node id="8"/>
			<node id="9"/>
			<node id="10"/>
			<node id="11"/>
			<node id="12"/>
			<node id="13"/>
			<node id="14"/>
			<node id="15"/>
			<node id="16"/>
			<node id="17"/>
			<node id="18"/>
			<node id="19"/>
			<node id="20"/>
<!-- ... 780 like lines cut -->
		</NodeSet>
		<NodeSet name="nodeset01">
			<node id="5001"/>
			<node id="5002"/>
			<node id="5003"/>
			<node id="5004"/>
			<node id="5005"/>
			<node id="5006"/>
			<node id="5007"/>
			<node id="5008"/>
			<node id="5009"/>
			<node id="5010"/>
			<node id="5011"/>
			<node id="5012"/>
			<node id="5013"/>
			<node id="5014"/>
			<node id="5015"/>
			<node id="5016"/>
			<node id="5017"/>
			<node id="5018"/>
			<node id="5019"/>
			<node id="5020"/>
<!-- ... 180 like lines cut -->
		</NodeSet>
		<Surface name="PressureLoad1">
			<quad4 id="1">     6,     1,   201,   206</quad4>
			<quad4 id="2">    11,     6,   206,   211</quad4>
			<quad4 id="3">    16,    11,   211,   216</quad4>
			<quad4 id="4">    21,    16,   216,   221</quad4>
			<quad4 id="5">    26,    21,   221,   226</quad4>
			<quad4 id="6">    31,    26,   226,   231</quad4>
			<quad4 id="7">    36,    31,   231,   236</quad4>
			<quad4 id="8">    41,    36,   236,   241</quad4>
			<quad4 id="9">    46,    41,   241,   246</quad4>
			<quad4 id="10">    51,    46,   246,   251</quad4>
			<quad4 id="11">   206,   201,   401,   406</quad4>
			<quad4 id="12">   211,   206,   406,   411</quad4>
			<quad4 id="13">   216,   211,   411,   416</quad4>
			<quad4 id="14">   221,   216,   416,   421</quad4>
			<quad4 id="15">   226,   221,   421,   426</quad4>
			<quad4 id="16">   231,   226,   426,   431</quad4>
			<quad4 id="17">   236,   231,   431,   436</quad4>
			<quad4 id="18">   241,   236,   436,   441</quad4>
			<quad4 id="19">   246,   241,   441,   446</quad4>
			<quad4 id="20">   251,   246,   446,   451</quad4>
<!-- ... 980 like lines cut -->
		</Surface>
	</Geometry>
	<Boundary>
		<fix bc="x,y,z" node_set="FixedDisplacement01"/>
	</Boundary>
	<LoadData>
		<loadcurve id="1" type="step">
			<point>0,0.0001</point>
			<point>0.0001,0.0001</point>
			<point>1,0.9999</point>
		</loadcurve>
		<loadcurve id="2" type="linear">
			<point>0,0</point>
			<point>1,1</point>
		</loadcurve>
	</LoadData>
	<Output>
		<plotfile type="febio"/>
		<logfile>
			<node_data data="ux;uy;uz" node_set="nodeset01"/>
		</logfile>
	</Output>
	<Step name="Step01">
		<Control>
			<time_steps>2500</time_steps>
			<step_size>0.0004</step_size>
			<max_refs>15</max_refs>
			<max_ups>0</max_ups>
			<diverge_reform>1</diverge_reform>
			<reform_each_time_step>1</reform_each_time_step>
			<dtol>0.001</dtol>
			<etol>0</etol>
			<rtol>0</rtol>
			<lstol>0</lstol>
			<min_residual>1e-020</min_residual>
			<qnmethod>0</qnmethod>
			<logSolve>1</logSolve>
			<time_stepper>
				<dtmin>0.0001</dtmin>
				<dtmax lc="1"></dtmax>
				<max_retries>0</max_retries>
				<opt_iter>0</opt_iter>
				<dtforce>1</dtforce>
			</time_stepper>
			<analysis type="static"/>
		</Control>
		<Loads>
			<surface_load type="pressure" surface="PressureLoad1">
				<pressure lc="2">2</pressure>
				<linear>1</linear>
				<symmetric_stiffness>1</symmetric_stiffness>
			</surface_load>
		</Loads>
	</Step>
</febio_spec>
