<?xml version="1.0" encoding="ISO-8859-1"?>
<!--
This model demonstrates the application of a radial bearing load on a cylindrical bearing surface,
while also prescribing a fixed normal displacement constraint on the outer circular face of the tube.
The bearing load is oriented along the x-direction. The mesh consists of hex8 elements.
-->
<febio_spec version="3.0">
	<Module type="solid"/>
	<Control>
		<analysis>STATIC</analysis>
		<time_steps>10</time_steps>
		<step_size>0.1</step_size>
		<solver>
			<max_refs>15</max_refs>
			<max_ups>10</max_ups>
			<diverge_reform>1</diverge_reform>
			<reform_each_time_step>1</reform_each_time_step>
			<dtol>0.001</dtol>
			<etol>0.01</etol>
			<rtol>0</rtol>
			<lstol>0.9</lstol>
			<min_residual>1e-20</min_residual>
			<qnmethod>BROYDEN</qnmethod>
			<rhoi>0</rhoi>
			<symmetric_stiffness>0</symmetric_stiffness>
		</solver>
		<time_stepper>
			<dtmin>0.01</dtmin>
			<dtmax>0.1</dtmax>
			<max_retries>5</max_retries>
			<opt_iter>10</opt_iter>
		</time_stepper>
	</Control>
	<Globals>
		<Constants>
			<T>0</T>
			<R>0</R>
			<Fc>0</Fc>
		</Constants>
	</Globals>
	<Material>
		<material id="1" name="Steel" type="neo-Hookean">
			<density>1</density>
			<E>200000</E>
			<v>0.3</v>
		</material>
	</Material>
	<Mesh>
		<Nodes name="Object1">
			<node id="1">3,0,0</node>
			<node id="2">18,0,0</node>
			<node id="3">0,3,0</node>
			<node id="4">0,18,0</node>
			<node id="5">-3,0,0</node>
			<node id="6">-18,0,0</node>
			<node id="7">0,-3,0</node>
			<node id="8">0,-18,0</node>
			<node id="9">3,0,10</node>
			<node id="10">18,0,10</node>
			<node id="11">0,3,10</node>
			<node id="12">0,18,10</node>
			<node id="13">-3,0,10</node>
			<node id="14">-18,0,10</node>
			<node id="15">0,-3,10</node>
			<node id="16">0,-18,10</node>
			<node id="17">3.06865862,0,0</node>
			<node id="18">3.15791483,0,0</node>
			<node id="19">3.27394789,0,0</node>
			<node id="20">3.42479088,0,0</node>
<!-- ... 4876 like lines cut -->
		</Nodes>
		<Elements type="hex8" name="Part1">
			<elem id="1">1,17,703,125,60,305,1957,570</elem>
			<elem id="2">17,18,704,703,305,306,1958,1957</elem>
			<elem id="3">18,19,705,704,306,307,1959,1958</elem>
			<elem id="4">19,20,706,705,307,308,1960,1959</elem>
			<elem id="5">20,21,707,706,308,309,1961,1960</elem>
			<elem id="6">21,22,708,707,309,310,1962,1961</elem>
			<elem id="7">22,23,709,708,310,311,1963,1962</elem>
			<elem id="8">23,24,710,709,311,312,1964,1963</elem>
			<elem id="9">24,25,711,710,312,313,1965,1964</elem>
			<elem id="10">25,26,712,711,313,314,1966,1965</elem>
			<elem id="11">26,27,713,712,314,315,1967,1966</elem>
			<elem id="12">27,28,714,713,315,316,1968,1967</elem>
			<elem id="13">28,29,715,714,316,317,1969,1968</elem>
			<elem id="14">29,30,716,715,317,318,1970,1969</elem>
			<elem id="15">30,31,717,716,318,319,1971,1970</elem>
			<elem id="16">31,2,61,717,319,32,410,1971</elem>
			<elem id="17">125,703,688,124,570,1957,1972,569</elem>
			<elem id="18">703,704,689,688,1957,1958,1973,1972</elem>
			<elem id="19">704,705,690,689,1958,1959,1974,1973</elem>
			<elem id="20">705,706,691,690,1959,1960,1975,1974</elem>
<!-- ... 4076 like lines cut -->
		</Elements>
		<Surface name="FixedDisplacement1">
			<quad4 id="1">3,96,613,119</quad4>
			<quad4 id="2">96,95,614,613</quad4>
			<quad4 id="3">95,94,615,614</quad4>
			<quad4 id="4">94,93,616,615</quad4>
			<quad4 id="5">93,92,617,616</quad4>
			<quad4 id="6">92,91,618,617</quad4>
			<quad4 id="7">91,90,619,618</quad4>
			<quad4 id="8">90,89,620,619</quad4>
			<quad4 id="9">89,88,621,620</quad4>
			<quad4 id="10">88,87,622,621</quad4>
			<quad4 id="11">87,86,623,622</quad4>
			<quad4 id="12">86,85,624,623</quad4>
			<quad4 id="13">85,84,625,624</quad4>
			<quad4 id="14">84,83,626,625</quad4>
			<quad4 id="15">83,82,627,626</quad4>
			<quad4 id="16">82,4,67,627</quad4>
			<quad4 id="17">119,613,628,120</quad4>
			<quad4 id="18">613,614,629,628</quad4>
			<quad4 id="19">614,615,630,629</quad4>
			<quad4 id="20">615,616,631,630</quad4>
<!-- ... 492 like lines cut -->
		</Surface>
		<Surface name="BearingLoad1">
			<quad4 id="1">3,119,564,97</quad4>
			<quad4 id="2">119,120,565,564</quad4>
			<quad4 id="3">120,121,566,565</quad4>
			<quad4 id="4">121,122,567,566</quad4>
			<quad4 id="5">122,123,568,567</quad4>
			<quad4 id="6">123,124,569,568</quad4>
			<quad4 id="7">124,125,570,569</quad4>
			<quad4 id="8">125,1,60,570</quad4>
			<quad4 id="9">97,564,571,98</quad4>
			<quad4 id="10">564,565,572,571</quad4>
			<quad4 id="11">565,566,573,572</quad4>
			<quad4 id="12">566,567,574,573</quad4>
			<quad4 id="13">567,568,575,574</quad4>
			<quad4 id="14">568,569,576,575</quad4>
			<quad4 id="15">569,570,577,576</quad4>
			<quad4 id="16">570,60,59,577</quad4>
			<quad4 id="17">98,571,578,99</quad4>
			<quad4 id="18">571,572,579,578</quad4>
			<quad4 id="19">572,573,580,579</quad4>
			<quad4 id="20">573,574,581,580</quad4>
<!-- ... 236 like lines cut -->
		</Surface>
		<Surface name="FixedNormalDisplacement1">
			<quad4 id="1">2,61,410,32</quad4>
			<quad4 id="2">61,62,411,410</quad4>
			<quad4 id="3">62,63,412,411</quad4>
			<quad4 id="4">63,64,413,412</quad4>
			<quad4 id="5">64,65,414,413</quad4>
			<quad4 id="6">65,66,415,414</quad4>
			<quad4 id="7">66,67,416,415</quad4>
			<quad4 id="8">67,4,68,416</quad4>
			<quad4 id="9">32,410,417,33</quad4>
			<quad4 id="10">410,411,418,417</quad4>
			<quad4 id="11">411,412,419,418</quad4>
			<quad4 id="12">412,413,420,419</quad4>
			<quad4 id="13">413,414,421,420</quad4>
			<quad4 id="14">414,415,422,421</quad4>
			<quad4 id="15">415,416,423,422</quad4>
			<quad4 id="16">416,68,69,423</quad4>
			<quad4 id="17">33,417,424,34</quad4>
			<quad4 id="18">417,418,425,424</quad4>
			<quad4 id="19">418,419,426,425</quad4>
			<quad4 id="20">419,420,427,426</quad4>
<!-- ... 236 like lines cut -->
		</Surface>
	</Mesh>
	<MeshDomains>
		<SolidDomain name="Part1" mat="Steel"/>
	</MeshDomains>
	<Boundary>
		<bc name="FixedDisplacement1" type="fix" node_set="@surface:FixedDisplacement1">
			<dofs>z</dofs>
		</bc>
	</Boundary>
	<Loads>
		<surface_load name="BearingLoad1" type="bearing load" surface="BearingLoad1">
			<scale lc="1">1000</scale>
			<force>1,0,0</force>
			<profile>0</profile>
			<linear>0</linear>
			<symmetric_stiffness>0</symmetric_stiffness>
			<shell_bottom>0</shell_bottom>
		</surface_load>
	</Loads>
	<Constraints>
		<constraint type="fixed normal displacement" name="FixedNormalDisplacement1" surface="FixedNormalDisplacement1">
			<laugon>1</laugon>
			<tol>0.05</tol>
			<penalty>10000</penalty>
			<minaug>0</minaug>
			<maxaug>10</maxaug>
			<shell_bottom>0</shell_bottom>
		</constraint>
	</Constraints>
	<LoadData>
		<load_controller id="1" type="loadcurve">
			<interpolate>SMOOTH</interpolate>
			<points>
				<point>0,0</point>
				<point>1,1</point>
			</points>
		</load_controller>
	</LoadData>
	<Output>
		<plotfile type="febio">
			<var type="displacement"/>
			<var type="reaction forces"/>
			<var type="relative volume"/>
			<var type="stress"/>
		</plotfile>
	</Output>
</febio_spec>
