<?xml version="1.0" encoding="ISO-8859-1"?>
<!--
Test problem for the the ls_check_jacobians flag. 
With this flag on, FEBio will catch negative jacobians that occur during
the line search, and retry with a smaller line search factor. 
-->
<febio_spec version="4.0">
	<Module type="solid"/>
	<Control>
		<analysis>STATIC</analysis>
		<time_steps>10</time_steps>
		<step_size>0.1</step_size>
		<plot_zero_state>0</plot_zero_state>
		<plot_range>0,-1</plot_range>
		<plot_level>PLOT_MAJOR_ITRS</plot_level>
		<output_level>OUTPUT_MAJOR_ITRS</output_level>
		<plot_stride>1</plot_stride>
		<output_stride>1</output_stride>
		<adaptor_re_solve>1</adaptor_re_solve>
		<time_stepper type="default">
			<max_retries>5</max_retries>
			<opt_iter>11</opt_iter>
			<dtmin>0</dtmin>
			<dtmax>0.1</dtmax>
			<aggressiveness>1</aggressiveness>
			<cutback>0.5</cutback>
			<dtforce>0</dtforce>
		</time_stepper>
		<solver type="solid">
			<symmetric_stiffness>symmetric</symmetric_stiffness>
			<equation_scheme>staggered</equation_scheme>
			<equation_order>default</equation_order>
			<optimize_bw>0</optimize_bw>
			<lstol>0.9</lstol>
			<lsmin>0.0</lsmin>
			<lsiter>10</lsiter>
			<ls_check_jacobians>1</ls_check_jacobians>
			<max_refs>15</max_refs>
			<check_zero_diagonal>0</check_zero_diagonal>
			<zero_diagonal_tol>0</zero_diagonal_tol>
			<force_partition>0</force_partition>
			<reform_each_time_step>1</reform_each_time_step>
			<reform_augment>0</reform_augment>
			<diverge_reform>1</diverge_reform>
			<min_residual>1e-20</min_residual>
			<max_residual>0</max_residual>
			<dtol>0.001</dtol>
			<etol>0.01</etol>
			<rtol>0</rtol>
			<rhoi>-2</rhoi>
			<alpha>1</alpha>
			<beta>0.25</beta>
			<gamma>0.5</gamma>
			<logSolve>0</logSolve>
			<arc_length>0</arc_length>
			<arc_length_scale>0</arc_length_scale>
			<qn_method type="BFGS">
				<max_ups>10</max_ups>
				<max_buffer_size>0</max_buffer_size>
				<cycle_buffer>1</cycle_buffer>
				<cmax>100000</cmax>
			</qn_method>
		</solver>
	</Control>
	<Globals>
		<Constants>
			<T>0</T>
			<P>0</P>
			<R>8.31446</R>
			<Fc>96485.3</Fc>
		</Constants>
	</Globals>
	<Material>
		<material id="1" name="Material1" type="neo-Hookean">
			<density>1</density>
			<E>100</E>
			<v>0</v>
		</material>
	</Material>
	<Mesh>
		<Nodes name="Object1">
			<node id="1">-10,-1,0</node>
			<node id="2">-10,-1,0.25</node>
			<node id="3">-10,-1,0.5</node>
			<node id="4">-10,-1,0.75</node>
			<node id="5">-10,-1,1</node>
			<node id="6">-10,-0.8,0</node>
			<node id="7">-10,-0.8,0.25</node>
			<node id="8">-10,-0.8,0.5</node>
			<node id="9">-10,-0.8,0.75</node>
			<node id="10">-10,-0.8,1</node>
			<node id="11">-10,-0.6,0</node>
			<node id="12">-10,-0.6,0.25</node>
			<node id="13">-10,-0.6,0.5</node>
			<node id="14">-10,-0.6,0.75</node>
			<node id="15">-10,-0.6,1</node>
			<node id="16">-10,-0.4,0</node>
			<node id="17">-10,-0.4,0.25</node>
			<node id="18">-10,-0.4,0.5</node>
			<node id="19">-10,-0.4,0.75</node>
			<node id="20">-10,-0.4,1</node>
<!-- ... 7729 like lines cut -->
		</Nodes>
		<Elements type="tet10" name="Part1">
			<elem id="1">56,61,6,62,1479,1182,1183,1480,1505,1184</elem>
			<elem id="2">1,56,6,62,1156,1183,1157,1158,1480,1184</elem>
			<elem id="3">1,62,6,7,1158,1184,1157,1159,1189,1185</elem>
			<elem id="4">56,57,62,1,1481,1485,1480,1156,1160,1158</elem>
			<elem id="5">2,7,57,1,1162,1190,1163,1161,1159,1160</elem>
			<elem id="6">57,7,62,1,1190,1189,1485,1160,1159,1158</elem>
			<elem id="7">57,62,7,63,1485,1189,1190,1486,1512,1191</elem>
			<elem id="8">2,57,7,63,1163,1190,1162,1164,1486,1191</elem>
			<elem id="9">2,63,7,8,1164,1191,1162,1165,1196,1192</elem>
			<elem id="10">57,58,63,2,1487,1491,1486,1163,1166,1164</elem>
			<elem id="11">3,8,58,2,1168,1197,1169,1167,1165,1166</elem>
			<elem id="12">58,8,63,2,1197,1196,1491,1166,1165,1164</elem>
			<elem id="13">58,63,8,64,1491,1196,1197,1492,1519,1198</elem>
			<elem id="14">3,58,8,64,1169,1197,1168,1170,1492,1198</elem>
			<elem id="15">3,64,8,9,1170,1198,1168,1171,1203,1199</elem>
			<elem id="16">58,59,64,3,1493,1497,1492,1169,1172,1170</elem>
			<elem id="17">4,9,59,3,1174,1204,1175,1173,1171,1172</elem>
			<elem id="18">59,9,64,3,1204,1203,1497,1172,1171,1170</elem>
			<elem id="19">59,64,9,65,1497,1203,1204,1498,1526,1205</elem>
			<elem id="20">4,59,9,65,1175,1204,1174,1176,1498,1205</elem>
<!-- ... 4780 like lines cut -->
		</Elements>
		<NodeSet name="PrescribedDisplacement2">
			1151, 1152, 1153, 1154, 1155
		</NodeSet>
		<Surface name="ZeroDisplacement1">
			<tri6 id="1">51,46,52,1434,1436,1464</tri6>
			<tri6 id="2">46,47,52,1433,1441,1436</tri6>
			<tri6 id="3">52,47,53,1441,1443,1468</tri6>
			<tri6 id="4">47,48,53,1440,1448,1443</tri6>
			<tri6 id="5">53,48,54,1448,1450,1472</tri6>
			<tri6 id="6">48,49,54,1447,1455,1450</tri6>
			<tri6 id="7">54,49,55,1455,1457,1476</tri6>
			<tri6 id="8">49,50,55,1454,1460,1457</tri6>
			<tri6 id="9">46,41,47,1403,1405,1433</tri6>
			<tri6 id="10">41,42,47,1402,1410,1405</tri6>
			<tri6 id="11">47,42,48,1410,1412,1440</tri6>
			<tri6 id="12">42,43,48,1409,1417,1412</tri6>
			<tri6 id="13">48,43,49,1417,1419,1447</tri6>
			<tri6 id="14">43,44,49,1416,1424,1419</tri6>
			<tri6 id="15">49,44,50,1424,1426,1454</tri6>
			<tri6 id="16">44,45,50,1423,1429,1426</tri6>
			<tri6 id="17">41,36,42,1372,1374,1402</tri6>
			<tri6 id="18">36,37,42,1371,1379,1374</tri6>
			<tri6 id="19">42,37,43,1379,1381,1409</tri6>
			<tri6 id="20">37,38,43,1378,1386,1381</tri6>
<!-- ... 60 like lines cut -->
		</Surface>
		<Surface name="PrescribedDisplacement2">
			<tri6 id="1">1101,1106,1107,7616,7629,7617</tri6>
			<tri6 id="2">1107,1102,1101,7619,7618,7617</tri6>
			<tri6 id="3">1102,1107,1108,7619,7632,7620</tri6>
			<tri6 id="4">1108,1103,1102,7622,7621,7620</tri6>
			<tri6 id="5">1103,1108,1109,7622,7635,7623</tri6>
			<tri6 id="6">1109,1104,1103,7625,7624,7623</tri6>
			<tri6 id="7">1104,1109,1110,7625,7638,7626</tri6>
			<tri6 id="8">1110,1105,1104,7628,7627,7626</tri6>
			<tri6 id="9">1106,1111,1112,7630,7642,7631</tri6>
			<tri6 id="10">1112,1107,1106,7633,7629,7631</tri6>
			<tri6 id="11">1107,1112,1113,7633,7645,7634</tri6>
			<tri6 id="12">1113,1108,1107,7636,7632,7634</tri6>
			<tri6 id="13">1108,1113,1114,7636,7648,7637</tri6>
			<tri6 id="14">1114,1109,1108,7639,7635,7637</tri6>
			<tri6 id="15">1109,1114,1115,7639,7651,7640</tri6>
			<tri6 id="16">1115,1110,1109,7641,7638,7640</tri6>
			<tri6 id="17">1111,1116,1117,7643,7655,7644</tri6>
			<tri6 id="18">1117,1112,1111,7646,7642,7644</tri6>
			<tri6 id="19">1112,1117,1118,7646,7658,7647</tri6>
			<tri6 id="20">1118,1113,1112,7649,7645,7647</tri6>
<!-- ... 60 like lines cut -->
		</Surface>
		<Surface name="ZeroDisplacement3">
			<tri6 id="1">5,60,10,1181,1211,1180</tri6>
			<tri6 id="2">60,65,10,1503,1210,1211</tri6>
			<tri6 id="3">10,65,15,1210,1242,1212</tri6>
			<tri6 id="4">65,70,15,1533,1241,1242</tri6>
			<tri6 id="5">15,70,20,1241,1273,1243</tri6>
			<tri6 id="6">70,75,20,1564,1272,1273</tri6>
			<tri6 id="7">20,75,25,1272,1304,1274</tri6>
			<tri6 id="8">75,80,25,1595,1303,1304</tri6>
			<tri6 id="9">25,80,30,1303,1335,1305</tri6>
			<tri6 id="10">80,85,30,1626,1334,1335</tri6>
			<tri6 id="11">30,85,35,1334,1366,1336</tri6>
			<tri6 id="12">85,90,35,1657,1365,1366</tri6>
			<tri6 id="13">35,90,40,1365,1397,1367</tri6>
			<tri6 id="14">90,95,40,1688,1396,1397</tri6>
			<tri6 id="15">40,95,45,1396,1428,1398</tri6>
			<tri6 id="16">95,100,45,1719,1427,1428</tri6>
			<tri6 id="17">45,100,50,1427,1459,1429</tri6>
			<tri6 id="18">100,105,50,1750,1458,1459</tri6>
			<tri6 id="19">50,105,55,1458,1478,1460</tri6>
			<tri6 id="20">105,110,55,1781,1477,1478</tri6>
<!-- ... 380 like lines cut -->
		</Surface>
	</Mesh>
	<MeshDomains>
		<SolidDomain name="Part1" mat="Material1"/>
	</MeshDomains>
	<Boundary>
		<bc name="ZeroDisplacement1" node_set="@surface:ZeroDisplacement1" type="zero displacement">
			<x_dof>1</x_dof>
			<y_dof>1</y_dof>
			<z_dof>1</z_dof>
		</bc>
		<bc name="PrescribedDisplacement2" node_set="PrescribedDisplacement2" type="prescribed displacement">
			<dof>y</dof>
			<value lc="1">21</value>
			<relative>0</relative>
		</bc>
		<bc name="ZeroDisplacement3" node_set="@surface:ZeroDisplacement3" type="zero displacement">
			<x_dof>0</x_dof>
			<y_dof>0</y_dof>
			<z_dof>1</z_dof>
		</bc>
	</Boundary>
	<LoadData>
		<load_controller id="1" name="LC1" type="loadcurve">
			<interpolate>LINEAR</interpolate>
			<extend>CONSTANT</extend>
			<points>
				<pt>0,0</pt>
				<pt>1,1</pt>
			</points>
		</load_controller>
	</LoadData>
	<Output>
		<plotfile type="febio">
			<var type="displacement"/>
			<var type="stress"/>
			<var type="relative volume"/>
		</plotfile>
	</Output>
</febio_spec>
