<?xml version="1.0" encoding="ISO-8859-1"?>
<febio_spec version="4.0">
	<Module type="solid">
		<units>SI</units>
	</Module>
	<Globals>
		<Constants>
			<T>0</T>
			<P>0</P>
			<R>8.31446</R>
			<Fc>96485.3</Fc>
		</Constants>
	</Globals>
	<Material>
		<material id="1" name="Material1" type="neo-Hookean">
			<density>1</density>
			<E>1</E>
			<v>0.3</v>
		</material>
		<material id="2" name="Material2" type="rigid body">
			<density>1</density>
			<E>1</E>
			<v>0</v>
		</material>
	</Material>
	<Mesh>
		<Nodes name="Object1">
			<node id="1">-0.5,-0.5,0</node>
			<node id="2">0.5,-0.5,0</node>
			<node id="3">0.5,0.5,0</node>
			<node id="4">-0.5,0.5,0</node>
			<node id="5">-0.5,-0.5,1</node>
			<node id="6">0.5,-0.5,1</node>
			<node id="7">0.5,0.5,1</node>
			<node id="8">-0.5,0.5,1</node>
			<node id="9">-0.4,-0.5,0</node>
			<node id="10">-0.3,-0.5,0</node>
			<node id="11">-0.2,-0.5,0</node>
			<node id="12">-0.1,-0.5,0</node>
			<node id="13">0,-0.5,0</node>
			<node id="14">0.1,-0.5,0</node>
			<node id="15">0.2,-0.5,0</node>
			<node id="16">0.3,-0.5,0</node>
			<node id="17">0.4,-0.5,0</node>
			<node id="18">0.5,-0.5,0.1</node>
			<node id="19">0.5,-0.5,0.2</node>
			<node id="20">0.5,-0.5,0.3</node>
<!-- ... 1311 like lines cut -->
		</Nodes>
		<Nodes name="Object2">
			<node id="1332">-0.75,-0.75,0.795484924</node>
			<node id="1333">0.75,-0.75,0.795484924</node>
			<node id="1334">0.75,0.75,0.795484924</node>
			<node id="1335">-0.75,0.75,0.795484924</node>
			<node id="1336">-0.75,-0.75,0.895484924</node>
			<node id="1337">0.75,-0.75,0.895484924</node>
			<node id="1338">0.75,0.75,0.895484924</node>
			<node id="1339">-0.75,0.75,0.895484924</node>
		</Nodes>
		<Elements type="hex8" name="Part1">
			<elem id="1">1,9,513,107,44,117,603,368</elem>
			<elem id="2">9,10,514,513,117,118,604,603</elem>
			<elem id="3">10,11,515,514,118,119,605,604</elem>
			<elem id="4">11,12,516,515,119,120,606,605</elem>
			<elem id="5">12,13,517,516,120,121,607,606</elem>
			<elem id="6">13,14,518,517,121,122,608,607</elem>
			<elem id="7">14,15,519,518,122,123,609,608</elem>
			<elem id="8">15,16,520,519,123,124,610,609</elem>
			<elem id="9">16,17,521,520,124,125,611,610</elem>
			<elem id="10">17,2,45,521,125,18,198,611</elem>
			<elem id="11">107,513,504,106,368,603,612,367</elem>
			<elem id="12">513,514,505,504,603,604,613,612</elem>
			<elem id="13">514,515,506,505,604,605,614,613</elem>
			<elem id="14">515,516,507,506,605,606,615,614</elem>
			<elem id="15">516,517,508,507,606,607,616,615</elem>
			<elem id="16">517,518,509,508,607,608,617,616</elem>
			<elem id="17">518,519,510,509,608,609,618,617</elem>
			<elem id="18">519,520,511,510,609,610,619,618</elem>
			<elem id="19">520,521,512,511,610,611,620,619</elem>
			<elem id="20">521,45,46,512,611,198,199,620</elem>
<!-- ... 980 like lines cut -->
		</Elements>
		<Elements type="hex8" name="Part2">
			<elem id="1001">1332,1333,1334,1335,1336,1337,1338,1339</elem>
		</Elements>
		<Surface name="ZeroDisplacement1">
			<quad4 id="1">4,80,441,99</quad4>
			<quad4 id="2">80,79,442,441</quad4>
			<quad4 id="3">79,78,443,442</quad4>
			<quad4 id="4">78,77,444,443</quad4>
			<quad4 id="5">77,76,445,444</quad4>
			<quad4 id="6">76,75,446,445</quad4>
			<quad4 id="7">75,74,447,446</quad4>
			<quad4 id="8">74,73,448,447</quad4>
			<quad4 id="9">73,72,449,448</quad4>
			<quad4 id="10">72,3,53,449</quad4>
			<quad4 id="11">99,441,450,100</quad4>
			<quad4 id="12">441,442,451,450</quad4>
			<quad4 id="13">442,443,452,451</quad4>
			<quad4 id="14">443,444,453,452</quad4>
			<quad4 id="15">444,445,454,453</quad4>
			<quad4 id="16">445,446,455,454</quad4>
			<quad4 id="17">446,447,456,455</quad4>
			<quad4 id="18">447,448,457,456</quad4>
			<quad4 id="19">448,449,458,457</quad4>
			<quad4 id="20">449,53,52,458</quad4>
<!-- ... 80 like lines cut -->
		</Surface>
		<Surface name="PrescribedDisplacement2">
			<quad4 id="1">5,35,522,108</quad4>
			<quad4 id="2">35,34,523,522</quad4>
			<quad4 id="3">34,33,524,523</quad4>
			<quad4 id="4">33,32,525,524</quad4>
			<quad4 id="5">32,31,526,525</quad4>
			<quad4 id="6">31,30,527,526</quad4>
			<quad4 id="7">30,29,528,527</quad4>
			<quad4 id="8">29,28,529,528</quad4>
			<quad4 id="9">28,27,530,529</quad4>
			<quad4 id="10">27,6,71,530</quad4>
			<quad4 id="11">108,522,531,109</quad4>
			<quad4 id="12">522,523,532,531</quad4>
			<quad4 id="13">523,524,533,532</quad4>
			<quad4 id="14">524,525,534,533</quad4>
			<quad4 id="15">525,526,535,534</quad4>
			<quad4 id="16">526,527,536,535</quad4>
			<quad4 id="17">527,528,537,536</quad4>
			<quad4 id="18">528,529,538,537</quad4>
			<quad4 id="19">529,530,539,538</quad4>
			<quad4 id="20">530,71,70,539</quad4>
<!-- ... 80 like lines cut -->
		</Surface>
		<Surface name="SlidingElastic1Secondary">
			<quad4 id="1">1335,1334,1333,1332</quad4>
		</Surface>
		<Surface name="SlidingElastic1Primary">
			<quad4 id="1">5,35,522,108</quad4>
			<quad4 id="2">35,34,523,522</quad4>
			<quad4 id="3">34,33,524,523</quad4>
			<quad4 id="4">33,32,525,524</quad4>
			<quad4 id="5">32,31,526,525</quad4>
			<quad4 id="6">31,30,527,526</quad4>
			<quad4 id="7">30,29,528,527</quad4>
			<quad4 id="8">29,28,529,528</quad4>
			<quad4 id="9">28,27,530,529</quad4>
			<quad4 id="10">27,6,71,530</quad4>
			<quad4 id="11">108,522,531,109</quad4>
			<quad4 id="12">522,523,532,531</quad4>
			<quad4 id="13">523,524,533,532</quad4>
			<quad4 id="14">524,525,534,533</quad4>
			<quad4 id="15">525,526,535,534</quad4>
			<quad4 id="16">526,527,536,535</quad4>
			<quad4 id="17">527,528,537,536</quad4>
			<quad4 id="18">528,529,538,537</quad4>
			<quad4 id="19">529,530,539,538</quad4>
			<quad4 id="20">530,71,70,539</quad4>
<!-- ... 80 like lines cut -->
		</Surface>
		<SurfacePair name="SlidingElastic1">
			<primary>SlidingElastic1Primary</primary>
			<secondary>SlidingElastic1Secondary</secondary>
		</SurfacePair>
	</Mesh>
	<MeshDomains>
		<SolidDomain name="Part1" mat="Material1"/>
		<SolidDomain name="Part2" mat="Material2"/>
	</MeshDomains>
	<Boundary>
		<bc name="ZeroDisplacement1" node_set="@surface:ZeroDisplacement1" type="zero displacement">
			<x_dof>1</x_dof>
			<y_dof>1</y_dof>
			<z_dof>1</z_dof>
		</bc>
	</Boundary>
	<Rigid>
		<rigid_bc name="RigidConstraint1" type="rigid_fixed">
			<rb>Material2</rb>
			<Rx_dof>1</Rx_dof>
			<Ry_dof>1</Ry_dof>
			<Rz_dof>1</Rz_dof>
			<Ru_dof>1</Ru_dof>
			<Rv_dof>1</Rv_dof>
			<Rw_dof>1</Rw_dof>
		</rigid_bc>
	</Rigid>
	<Step>
		<step id="1" name="Step1">
			<Control>
				<analysis>STATIC</analysis>
				<time_steps>10</time_steps>
				<step_size>0.1</step_size>
				<plot_zero_state>0</plot_zero_state>
				<plot_range>0,-1</plot_range>
				<plot_level>PLOT_MAJOR_ITRS</plot_level>
				<output_level>OUTPUT_MAJOR_ITRS</output_level>
				<plot_stride>1</plot_stride>
				<output_stride>1</output_stride>
				<adaptor_re_solve>1</adaptor_re_solve>
				<time_stepper type="default">
					<max_retries>5</max_retries>
					<opt_iter>11</opt_iter>
					<dtmin>0</dtmin>
					<dtmax>0.1</dtmax>
					<aggressiveness>0</aggressiveness>
					<cutback>0.5</cutback>
					<dtforce>0</dtforce>
				</time_stepper>
				<solver type="solid">
					<symmetric_stiffness>preferred</symmetric_stiffness>
					<equation_scheme>staggered</equation_scheme>
					<equation_order>default</equation_order>
					<optimize_bw>0</optimize_bw>
					<lstol>0.9</lstol>
					<lsmin>0.01</lsmin>
					<lsiter>5</lsiter>
					<ls_check_jacobians>0</ls_check_jacobians>
					<max_refs>15</max_refs>
					<check_zero_diagonal>0</check_zero_diagonal>
					<zero_diagonal_tol>0</zero_diagonal_tol>
					<force_partition>0</force_partition>
					<reform_each_time_step>1</reform_each_time_step>
					<reform_augment>0</reform_augment>
					<diverge_reform>1</diverge_reform>
					<min_residual>1e-20</min_residual>
					<max_residual>0</max_residual>
					<dtol>0.001</dtol>
					<etol>0.01</etol>
					<rtol>0</rtol>
					<rhoi>-2</rhoi>
					<alpha>1</alpha>
					<beta>0.25</beta>
					<gamma>0.5</gamma>
					<logSolve>0</logSolve>
					<arc_length>0</arc_length>
					<arc_length_scale>0</arc_length_scale>
					<qn_method type="Broyden">
						<max_ups>10</max_ups>
						<max_buffer_size>0</max_buffer_size>
						<cycle_buffer>1</cycle_buffer>
						<cmax>100000</cmax>
					</qn_method>
				</solver>
			</Control>
			<Boundary>
				<bc name="PrescribedDisplacement2" node_set="@surface:PrescribedDisplacement2" type="prescribed displacement">
					<dof>z</dof>
					<value lc="1">-0.25</value>
					<relative>0</relative>
				</bc>
			</Boundary>
		</step>
		<step id="2" name="Step2">
			<Control>
				<analysis>STATIC</analysis>
				<time_steps>10</time_steps>
				<step_size>0.1</step_size>
				<plot_zero_state>0</plot_zero_state>
				<plot_range>0,-1</plot_range>
				<plot_level>PLOT_MAJOR_ITRS</plot_level>
				<output_level>OUTPUT_MAJOR_ITRS</output_level>
				<plot_stride>1</plot_stride>
				<output_stride>1</output_stride>
				<adaptor_re_solve>1</adaptor_re_solve>
				<time_stepper type="default">
					<max_retries>5</max_retries>
					<opt_iter>11</opt_iter>
					<dtmin>0</dtmin>
					<dtmax>0.1</dtmax>
					<aggressiveness>0</aggressiveness>
					<cutback>0.5</cutback>
					<dtforce>0</dtforce>
				</time_stepper>
				<solver type="solid">
					<symmetric_stiffness>preferred</symmetric_stiffness>
					<equation_scheme>staggered</equation_scheme>
					<equation_order>default</equation_order>
					<optimize_bw>0</optimize_bw>
					<lstol>0.9</lstol>
					<lsmin>0.01</lsmin>
					<lsiter>5</lsiter>
					<ls_check_jacobians>0</ls_check_jacobians>
					<max_refs>15</max_refs>
					<check_zero_diagonal>0</check_zero_diagonal>
					<zero_diagonal_tol>0</zero_diagonal_tol>
					<force_partition>0</force_partition>
					<reform_each_time_step>1</reform_each_time_step>
					<reform_augment>0</reform_augment>
					<diverge_reform>1</diverge_reform>
					<min_residual>1e-20</min_residual>
					<max_residual>0</max_residual>
					<dtol>0.001</dtol>
					<etol>0.01</etol>
					<rtol>0</rtol>
					<rhoi>-2</rhoi>
					<alpha>1</alpha>
					<beta>0.25</beta>
					<gamma>0.5</gamma>
					<logSolve>0</logSolve>
					<arc_length>0</arc_length>
					<arc_length_scale>0</arc_length_scale>
					<qn_method type="Broyden">
						<max_ups>10</max_ups>
						<max_buffer_size>0</max_buffer_size>
						<cycle_buffer>1</cycle_buffer>
						<cmax>100000</cmax>
					</qn_method>
				</solver>
			</Control>
			<Loads>
				<nodal_load name="Nodal_force1" node_set="@surface:PrescribedDisplacement2" type="nodal_target_force">
					<scale lc="2">1</scale>
					<force>0,0,0</force>
					<shell_bottom>0</shell_bottom>
				</nodal_load>
			</Loads>
			<Contact>
				<contact name="SlidingElastic1" surface_pair="SlidingElastic1" type="sliding-elastic">
					<laugon>PENALTY</laugon>
					<tolerance>0.1</tolerance>
					<gaptol>0</gaptol>
					<penalty>10</penalty>
					<auto_penalty>1</auto_penalty>
					<update_penalty>0</update_penalty>
					<two_pass>0</two_pass>
					<knmult>0</knmult>
					<search_tol>0.01</search_tol>
					<symmetric_stiffness>0</symmetric_stiffness>
					<search_radius>1</search_radius>
					<seg_up>0</seg_up>
					<tension>0</tension>
					<minaug>0</minaug>
					<maxaug>10</maxaug>
					<node_reloc>0</node_reloc>
					<fric_coeff>0</fric_coeff>
					<smooth_aug>0</smooth_aug>
					<flip_primary>0</flip_primary>
					<flip_secondary>0</flip_secondary>
					<shell_bottom_primary>0</shell_bottom_primary>
					<shell_bottom_secondary>0</shell_bottom_secondary>
					<offset>0</offset>
				</contact>
			</Contact>
		</step>
	</Step>
	<LoadData>
		<load_controller id="1" name="LC1" type="loadcurve">
			<interpolate>LINEAR</interpolate>
			<extend>CONSTANT</extend>
			<points>
				<pt>0,0</pt>
				<pt>1,1</pt>
			</points>
		</load_controller>
		<load_controller id="2" name="LC2" type="loadcurve">
			<interpolate>LINEAR</interpolate>
			<extend>CONSTANT</extend>
			<points>
				<pt>1,0</pt>
				<pt>2,1</pt>
			</points>
		</load_controller>
	</LoadData>
	<Output>
		<plotfile type="febio">
			<var type="displacement"/>
			<var type="stress"/>
			<var type="reaction forces"/>
			<var type="contact pressure"/>
			<var type="contact gap"/>
		</plotfile>
	</Output>
</febio_spec>
