<?xml version="1.0" encoding="ISO-8859-1"?>
<febio_spec version="4.0">
	<Module type="solid">
		<units>SI</units>
	</Module>
	<Control>
		<analysis>STATIC</analysis>
		<time_steps>10</time_steps>
		<step_size>0.1</step_size>
		<plot_zero_state>0</plot_zero_state>
		<plot_range>0,-1</plot_range>
		<plot_level>PLOT_MAJOR_ITRS</plot_level>
		<output_level>OUTPUT_MAJOR_ITRS</output_level>
		<plot_stride>1</plot_stride>
		<output_stride>1</output_stride>
		<adaptor_re_solve>1</adaptor_re_solve>
		<solver type="solid">
			<symmetric_stiffness>preferred</symmetric_stiffness>
			<equation_scheme>staggered</equation_scheme>
			<equation_order>default</equation_order>
			<optimize_bw>0</optimize_bw>
			<lstol>0.9</lstol>
			<lsmin>0.01</lsmin>
			<lsiter>5</lsiter>
			<ls_check_jacobians>0</ls_check_jacobians>
			<max_refs>15</max_refs>
			<check_zero_diagonal>0</check_zero_diagonal>
			<zero_diagonal_tol>0</zero_diagonal_tol>
			<force_partition>0</force_partition>
			<reform_each_time_step>1</reform_each_time_step>
			<reform_augment>0</reform_augment>
			<diverge_reform>1</diverge_reform>
			<min_residual>1e-20</min_residual>
			<max_residual>0</max_residual>
			<dtol>0.001</dtol>
			<etol>0.01</etol>
			<rtol>0</rtol>
			<rhoi>-2</rhoi>
			<alpha>1</alpha>
			<beta>0.25</beta>
			<gamma>0.5</gamma>
			<logSolve>0</logSolve>
			<arc_length>0</arc_length>
			<arc_length_scale>0</arc_length_scale>
			<qn_method type="BFGS">
				<max_ups>10</max_ups>
				<max_buffer_size>0</max_buffer_size>
				<cycle_buffer>1</cycle_buffer>
				<cmax>100000</cmax>
			</qn_method>
		</solver>
	</Control>
	<Globals>
		<Constants>
			<T>0</T>
			<P>0</P>
			<R>8.31446</R>
			<Fc>96485.3</Fc>
		</Constants>
	</Globals>
	<Material>
		<material id="1" name="Material1" type="trans iso Mooney-Rivlin">
			<density>1</density>
			<k>100</k>
			<pressure_model>default</pressure_model>
			<c1>1</c1>
			<c2>0</c2>
			<c3>1</c3>
			<c4>1</c4>
			<c5>1</c5>
			<lam_max>10</lam_max>
			<fiber type="map">
				<map>test</map>
			</fiber>
		</material>
	</Material>
	<Mesh>
		<Nodes name="Object1">
			<node id="1">0.5,0,0</node>
			<node id="2">1,0,0</node>
			<node id="3">0,0.5,0</node>
			<node id="4">0,1,0</node>
			<node id="5">-0.5,0,0</node>
			<node id="6">-1,0,0</node>
			<node id="7">0,-0.5,0</node>
			<node id="8">0,-1,0</node>
			<node id="9">0.5,0,1</node>
			<node id="10">1,0,1</node>
			<node id="11">0,0.5,1</node>
			<node id="12">0,1,1</node>
			<node id="13">-0.5,0,1</node>
			<node id="14">-1,0,1</node>
			<node id="15">0,-0.5,1</node>
			<node id="16">0,-1,1</node>
			<node id="17">0.625,0,0</node>
			<node id="18">0.75,0,0</node>
			<node id="19">0.875,0,0</node>
			<node id="20">1,0,0.125</node>
<!-- ... 1420 like lines cut -->
		</Nodes>
		<Elements type="hex8" name="Part2">
			<elem id="1">1,17,367,77,36,209,853,306</elem>
			<elem id="2">17,18,368,367,209,210,854,853</elem>
			<elem id="3">18,19,369,368,210,211,855,854</elem>
			<elem id="4">19,2,37,369,211,20,230,855</elem>
			<elem id="5">77,367,364,76,306,853,856,305</elem>
			<elem id="6">367,368,365,364,853,854,857,856</elem>
			<elem id="7">368,369,366,365,854,855,858,857</elem>
			<elem id="8">369,37,38,366,855,230,231,858</elem>
			<elem id="9">76,364,361,75,305,856,859,304</elem>
			<elem id="10">364,365,362,361,856,857,860,859</elem>
			<elem id="11">365,366,363,362,857,858,861,860</elem>
			<elem id="12">366,38,39,363,858,231,232,861</elem>
			<elem id="13">75,361,358,74,304,859,862,303</elem>
			<elem id="14">361,362,359,358,859,860,863,862</elem>
			<elem id="15">362,363,360,359,860,861,864,863</elem>
			<elem id="16">363,39,40,360,861,232,233,864</elem>
			<elem id="17">74,358,355,73,303,862,865,302</elem>
			<elem id="18">358,359,356,355,862,863,866,865</elem>
			<elem id="19">359,360,357,356,863,864,867,866</elem>
			<elem id="20">360,40,41,357,864,233,234,867</elem>
<!-- ... 236 like lines cut -->
		</Elements>
		<Elements type="hex8" name="Part3">
			<elem id="769">7,156,829,201,157,603,1294,768</elem>
			<elem id="770">156,155,830,829,603,602,1295,1294</elem>
			<elem id="771">155,154,831,830,602,601,1296,1295</elem>
			<elem id="772">154,8,181,831,601,140,713,1296</elem>
			<elem id="773">201,829,826,200,768,1294,1297,767</elem>
			<elem id="774">829,830,827,826,1294,1295,1298,1297</elem>
			<elem id="775">830,831,828,827,1295,1296,1299,1298</elem>
			<elem id="776">831,181,182,828,1296,713,714,1299</elem>
			<elem id="777">200,826,823,199,767,1297,1300,766</elem>
			<elem id="778">826,827,824,823,1297,1298,1301,1300</elem>
			<elem id="779">827,828,825,824,1298,1299,1302,1301</elem>
			<elem id="780">828,182,183,825,1299,714,715,1302</elem>
			<elem id="781">199,823,820,198,766,1300,1303,765</elem>
			<elem id="782">823,824,821,820,1300,1301,1304,1303</elem>
			<elem id="783">824,825,822,821,1301,1302,1305,1304</elem>
			<elem id="784">825,183,184,822,1302,715,716,1305</elem>
			<elem id="785">198,820,817,197,765,1303,1306,764</elem>
			<elem id="786">820,821,818,817,1303,1304,1307,1306</elem>
			<elem id="787">821,822,819,818,1304,1305,1308,1307</elem>
			<elem id="788">822,184,185,819,1305,716,717,1308</elem>
<!-- ... 236 like lines cut -->
		</Elements>
		<Elements type="hex8" name="Part4">
			<elem id="513">5,108,689,173,109,442,1147,628</elem>
			<elem id="514">108,107,690,689,442,441,1148,1147</elem>
			<elem id="515">107,106,691,690,441,440,1149,1148</elem>
			<elem id="516">106,6,133,691,440,92,552,1149</elem>
			<elem id="517">173,689,686,172,628,1147,1150,627</elem>
			<elem id="518">689,690,687,686,1147,1148,1151,1150</elem>
			<elem id="519">690,691,688,687,1148,1149,1152,1151</elem>
			<elem id="520">691,133,134,688,1149,552,553,1152</elem>
			<elem id="521">172,686,683,171,627,1150,1153,626</elem>
			<elem id="522">686,687,684,683,1150,1151,1154,1153</elem>
			<elem id="523">687,688,685,684,1151,1152,1155,1154</elem>
			<elem id="524">688,134,135,685,1152,553,554,1155</elem>
			<elem id="525">171,683,680,170,626,1153,1156,625</elem>
			<elem id="526">683,684,681,680,1153,1154,1157,1156</elem>
			<elem id="527">684,685,682,681,1154,1155,1158,1157</elem>
			<elem id="528">685,135,136,682,1155,554,555,1158</elem>
			<elem id="529">170,680,677,169,625,1156,1159,624</elem>
			<elem id="530">680,681,678,677,1156,1157,1160,1159</elem>
			<elem id="531">681,682,679,678,1157,1158,1161,1160</elem>
			<elem id="532">682,136,137,679,1158,555,556,1161</elem>
<!-- ... 236 like lines cut -->
		</Elements>
		<Elements type="hex8" name="Part5">
			<elem id="257">3,60,528,125,61,281,1000,467</elem>
			<elem id="258">60,59,529,528,281,280,1001,1000</elem>
			<elem id="259">59,58,530,529,280,279,1002,1001</elem>
			<elem id="260">58,4,85,530,279,44,391,1002</elem>
			<elem id="261">125,528,525,124,467,1000,1003,466</elem>
			<elem id="262">528,529,526,525,1000,1001,1004,1003</elem>
			<elem id="263">529,530,527,526,1001,1002,1005,1004</elem>
			<elem id="264">530,85,86,527,1002,391,392,1005</elem>
			<elem id="265">124,525,522,123,466,1003,1006,465</elem>
			<elem id="266">525,526,523,522,1003,1004,1007,1006</elem>
			<elem id="267">526,527,524,523,1004,1005,1008,1007</elem>
			<elem id="268">527,86,87,524,1005,392,393,1008</elem>
			<elem id="269">123,522,519,122,465,1006,1009,464</elem>
			<elem id="270">522,523,520,519,1006,1007,1010,1009</elem>
			<elem id="271">523,524,521,520,1007,1008,1011,1010</elem>
			<elem id="272">524,87,88,521,1008,393,394,1011</elem>
			<elem id="273">122,519,516,121,464,1009,1012,463</elem>
			<elem id="274">519,520,517,516,1009,1010,1013,1012</elem>
			<elem id="275">520,521,518,517,1010,1011,1014,1013</elem>
			<elem id="276">521,88,89,518,1011,394,395,1014</elem>
<!-- ... 236 like lines cut -->
		</Elements>
		<Surface name="bottom">
			<quad4 id="1">3,71,300,61</quad4>
			<quad4 id="2">71,72,301,300</quad4>
			<quad4 id="3">72,73,302,301</quad4>
			<quad4 id="4">73,74,303,302</quad4>
			<quad4 id="5">74,75,304,303</quad4>
			<quad4 id="6">75,76,305,304</quad4>
			<quad4 id="7">76,77,306,305</quad4>
			<quad4 id="8">77,1,36,306</quad4>
			<quad4 id="9">61,300,307,62</quad4>
			<quad4 id="10">300,301,308,307</quad4>
			<quad4 id="11">301,302,309,308</quad4>
			<quad4 id="12">302,303,310,309</quad4>
			<quad4 id="13">303,304,311,310</quad4>
			<quad4 id="14">304,305,312,311</quad4>
			<quad4 id="15">305,306,313,312</quad4>
			<quad4 id="16">306,36,35,313</quad4>
			<quad4 id="17">62,307,314,63</quad4>
			<quad4 id="18">307,308,315,314</quad4>
			<quad4 id="19">308,309,316,315</quad4>
			<quad4 id="20">309,310,317,316</quad4>
<!-- ... 236 like lines cut -->
		</Surface>
		<Surface name="top">
			<quad4 id="1">2,37,230,20</quad4>
			<quad4 id="2">37,38,231,230</quad4>
			<quad4 id="3">38,39,232,231</quad4>
			<quad4 id="4">39,40,233,232</quad4>
			<quad4 id="5">40,41,234,233</quad4>
			<quad4 id="6">41,42,235,234</quad4>
			<quad4 id="7">42,43,236,235</quad4>
			<quad4 id="8">43,4,44,236</quad4>
			<quad4 id="9">20,230,237,21</quad4>
			<quad4 id="10">230,231,238,237</quad4>
			<quad4 id="11">231,232,239,238</quad4>
			<quad4 id="12">232,233,240,239</quad4>
			<quad4 id="13">233,234,241,240</quad4>
			<quad4 id="14">234,235,242,241</quad4>
			<quad4 id="15">235,236,243,242</quad4>
			<quad4 id="16">236,44,45,243</quad4>
			<quad4 id="17">21,237,244,22</quad4>
			<quad4 id="18">237,238,245,244</quad4>
			<quad4 id="19">238,239,246,245</quad4>
			<quad4 id="20">239,240,247,246</quad4>
<!-- ... 236 like lines cut -->
		</Surface>
		<Surface name="ZeroDisplacement1">
			<quad4 id="1">3,60,349,71</quad4>
			<quad4 id="2">60,59,350,349</quad4>
			<quad4 id="3">59,58,351,350</quad4>
			<quad4 id="4">58,4,43,351</quad4>
			<quad4 id="5">71,349,352,72</quad4>
			<quad4 id="6">349,350,353,352</quad4>
			<quad4 id="7">350,351,354,353</quad4>
			<quad4 id="8">351,43,42,354</quad4>
			<quad4 id="9">72,352,355,73</quad4>
			<quad4 id="10">352,353,356,355</quad4>
			<quad4 id="11">353,354,357,356</quad4>
			<quad4 id="12">354,42,41,357</quad4>
			<quad4 id="13">73,355,358,74</quad4>
			<quad4 id="14">355,356,359,358</quad4>
			<quad4 id="15">356,357,360,359</quad4>
			<quad4 id="16">357,41,40,360</quad4>
			<quad4 id="17">74,358,361,75</quad4>
			<quad4 id="18">358,359,362,361</quad4>
			<quad4 id="19">359,360,363,362</quad4>
			<quad4 id="20">360,40,39,363</quad4>
<!-- ... 108 like lines cut -->
		</Surface>
		<Surface name="PrescribedDisplacement2">
			<quad4 id="1">9,29,370,78</quad4>
			<quad4 id="2">29,28,371,370</quad4>
			<quad4 id="3">28,27,372,371</quad4>
			<quad4 id="4">27,10,57,372</quad4>
			<quad4 id="5">78,370,373,79</quad4>
			<quad4 id="6">370,371,374,373</quad4>
			<quad4 id="7">371,372,375,374</quad4>
			<quad4 id="8">372,57,56,375</quad4>
			<quad4 id="9">79,373,376,80</quad4>
			<quad4 id="10">373,374,377,376</quad4>
			<quad4 id="11">374,375,378,377</quad4>
			<quad4 id="12">375,56,55,378</quad4>
			<quad4 id="13">80,376,379,81</quad4>
			<quad4 id="14">376,377,380,379</quad4>
			<quad4 id="15">377,378,381,380</quad4>
			<quad4 id="16">378,55,54,381</quad4>
			<quad4 id="17">81,379,382,82</quad4>
			<quad4 id="18">379,380,383,382</quad4>
			<quad4 id="19">380,381,384,383</quad4>
			<quad4 id="20">381,54,53,384</quad4>
<!-- ... 108 like lines cut -->
		</Surface>
		<PartList name="MeshData1">Part2,Part3,Part4,Part5</PartList>
	</Mesh>
	<MeshDomains>
		<SolidDomain name="Part2" mat="Material1"/>
		<SolidDomain name="Part3" mat="Material1"/>
		<SolidDomain name="Part4" mat="Material1"/>
		<SolidDomain name="Part5" mat="Material1"/>
	</MeshDomains>
	<MeshData>
		<ElementData name="test" elem_set="@part_list:MeshData1" type="surface-to-surface vector">
			<surface1>bottom</surface1>
			<surface2>top</surface2>
			<cross>1</cross>
			<normal>0,0,1</normal>
			<in_angle>0</in_angle>
			<out_angle>45</out_angle>
		</ElementData>
	</MeshData>
	<Boundary>
		<bc name="ZeroDisplacement1" node_set="@surface:ZeroDisplacement1" type="zero displacement">
			<x_dof>1</x_dof>
			<y_dof>1</y_dof>
			<z_dof>1</z_dof>
		</bc>
		<bc name="PrescribedDisplacement2" node_set="@surface:PrescribedDisplacement2" type="prescribed displacement">
			<dof>z</dof>
			<value lc="1">1</value>
			<relative>0</relative>
		</bc>
	</Boundary>
	<LoadData>
		<load_controller id="1" name="LC1" type="loadcurve">
			<interpolate>LINEAR</interpolate>
			<extend>CONSTANT</extend>
			<points>
				<pt>0,0</pt>
				<pt>1,1</pt>
			</points>
		</load_controller>
	</LoadData>
	<Output>
		<plotfile type="febio">
			<var type="displacement"/>
			<var type="stress"/>
			<var type="fiber vector"/>
		</plotfile>
	</Output>
</febio_spec>
