<?xml version="1.0" encoding="ISO-8859-1"?>
<!--
Problem Description:
	Multi-step and dynamic analysis.  Pinball spring model.  The pinball
	plunger is retracted and then allowed to recoil, striking the pinball.
Main Features:
	Multi-step analysis
	Dynamic analysis
	Sliding with gaps contact
	Shells
Secondary Features:
	Rigid contact
Materials:
	Neo-Hookean
	Rigid Bodies
Degrees of Freedom: 7738
Results:
	Steps Completed: 20, 226
	Equilibrium Iterations: 66, 2626
	Right Hand Evaluations: 92, 6529
	Siffness Reformations: 21, 418
	Other:
		The pinball has a displacement of 16.7 at time t=201.
Comments:
	
-->
<febio_spec version="1.0">
	<Control>
		<title>Multistep example</title>
	</Control>
	<Material>
		<material id="1" name="fixed" type="rigid body">
			<density>1</density>
			<trans_x type="fixed"></trans_x>
			<trans_y type="fixed"></trans_y>
			<trans_z type="fixed"></trans_z>
			<rot_x type="fixed"></rot_x>
			<rot_y type="fixed"></rot_y>
			<rot_z type="fixed"></rot_z>
		</material>
		<material id="2" name="handle" type="rigid body">
			<density>1</density>
			<trans_x type="fixed"></trans_x>
			<trans_y type="fixed"></trans_y>
			<trans_z type="free"></trans_z>
			<rot_x type="fixed"></rot_x>
			<rot_y type="fixed"></rot_y>
			<rot_z type="fixed"></rot_z>
		</material>
		<material id="3" name="spring" type="neo-Hookean">
			<E>100000</E>
			<v>0</v>
		</material>
		<material id="4" name="hand" type="neo-Hookean">
			<density>0.5</density>
			<E>10</E>
			<v>0</v>
		</material>
		<material id="5" name="ball" type="neo-Hookean">
			<density>0.5</density>
			<E>100</E>
			<v>0</v>
		</material>
		<material id="6" name="tip" type="neo-Hookean">
			<density>0.5</density>
			<E>10</E>
			<v>0.35</v>
		</material>
	</Material>
	<Geometry>
		<Nodes>
			<node id="1"> 4.5000000e+000, 0.0000000e+000,-5.0000000e-001</node>
			<node id="2"> 5.0000000e+000, 0.0000000e+000,-5.0000000e-001</node>
			<node id="3"> 4.5000000e+000, 0.0000000e+000, 0.0000000e+000</node>
			<node id="4"> 5.0000000e+000, 0.0000000e+000, 0.0000000e+000</node>
			<node id="5"> 4.4775187e+000,-4.4925037e-001,-4.6700000e-001</node>
			<node id="6"> 4.9750208e+000,-4.9916708e-001,-4.6700000e-001</node>
			<node id="7"> 4.4775187e+000,-4.4925037e-001, 3.3000000e-002</node>
			<node id="8"> 4.9750208e+000,-4.9916708e-001, 3.3000000e-002</node>
			<node id="9"> 4.4102996e+000,-8.9401199e-001,-4.3400000e-001</node>
			<node id="10"> 4.9003329e+000,-9.9334665e-001,-4.3400000e-001</node>
			<node id="11"> 4.4102996e+000,-8.9401199e-001, 6.6000000e-002</node>
			<node id="12"> 4.9003329e+000,-9.9334665e-001, 6.6000000e-002</node>
			<node id="13"> 4.2990142e+000,-1.3298409e+000,-4.0100000e-001</node>
			<node id="14"> 4.7766824e+000,-1.4776010e+000,-4.0100000e-001</node>
			<node id="15"> 4.2990142e+000,-1.3298409e+000, 9.9000000e-002</node>
			<node id="16"> 4.7766824e+000,-1.4776010e+000, 9.9000000e-002</node>
			<node id="17"> 4.1447745e+000,-1.7523825e+000,-3.6800000e-001</node>
			<node id="18"> 4.6053050e+000,-1.9470917e+000,-3.6800000e-001</node>
			<node id="19"> 4.1447745e+000,-1.7523825e+000, 1.3200000e-001</node>
			<node id="20"> 4.6053050e+000,-1.9470917e+000, 1.3200000e-001</node>
<!-- ... 3614 like lines cut -->
		</Nodes>
		<Elements>
			<hex8 id="1" mat="3">     1,     2,     4,     3,     5,     6,     8,     7</hex8>
			<hex8 id="2" mat="3">     5,     6,     8,     7,     9,    10,    12,    11</hex8>
			<hex8 id="3" mat="3">     9,    10,    12,    11,    13,    14,    16,    15</hex8>
			<hex8 id="4" mat="3">    13,    14,    16,    15,    17,    18,    20,    19</hex8>
			<hex8 id="5" mat="3">    17,    18,    20,    19,    21,    22,    24,    23</hex8>
			<hex8 id="6" mat="3">    21,    22,    24,    23,    25,    26,    28,    27</hex8>
			<hex8 id="7" mat="3">    25,    26,    28,    27,    29,    30,    32,    31</hex8>
			<hex8 id="8" mat="3">    29,    30,    32,    31,    33,    34,    36,    35</hex8>
			<hex8 id="9" mat="3">    33,    34,    36,    35,    37,    38,    40,    39</hex8>
			<hex8 id="10" mat="3">    37,    38,    40,    39,    41,    42,    44,    43</hex8>
			<hex8 id="11" mat="3">    41,    42,    44,    43,    45,    46,    48,    47</hex8>
			<hex8 id="12" mat="3">    45,    46,    48,    47,    49,    50,    52,    51</hex8>
			<hex8 id="13" mat="3">    49,    50,    52,    51,    53,    54,    56,    55</hex8>
			<hex8 id="14" mat="3">    53,    54,    56,    55,    57,    58,    60,    59</hex8>
			<hex8 id="15" mat="3">    57,    58,    60,    59,    61,    62,    64,    63</hex8>
			<hex8 id="16" mat="3">    61,    62,    64,    63,    65,    66,    68,    67</hex8>
			<hex8 id="17" mat="3">    65,    66,    68,    67,    69,    70,    72,    71</hex8>
			<hex8 id="18" mat="3">    69,    70,    72,    71,    73,    74,    76,    75</hex8>
			<hex8 id="19" mat="3">    73,    74,    76,    75,    77,    78,    80,    79</hex8>
			<hex8 id="20" mat="3">    77,    78,    80,    79,    81,    82,    84,    83</hex8>
<!-- ... 1344 like lines cut -->
			<quad4 id="1365" mat="2">  2005,  2006,  2022,  2021</quad4>
			<quad4 id="1366" mat="2">  2006,  2007,  2023,  2022</quad4>
			<quad4 id="1367" mat="2">  2007,  2008,  2024,  2023</quad4>
			<quad4 id="1368" mat="2">  2008,  2009,  2025,  2024</quad4>
			<quad4 id="1369" mat="2">  2009,  2010,  2026,  2025</quad4>
			<quad4 id="1370" mat="2">  2010,  2011,  2027,  2026</quad4>
			<quad4 id="1371" mat="2">  2011,  2012,  2028,  2027</quad4>
			<quad4 id="1372" mat="2">  2012,  2013,  2029,  2028</quad4>
			<quad4 id="1373" mat="2">  2013,  2014,  2030,  2029</quad4>
			<quad4 id="1374" mat="2">  2014,  2015,  2031,  2030</quad4>
			<quad4 id="1375" mat="2">  2015,  2016,  2032,  2031</quad4>
			<quad4 id="1376" mat="2">  2016,  2017,  2033,  2032</quad4>
			<quad4 id="1377" mat="2">  2017,  2018,  2034,  2033</quad4>
			<quad4 id="1378" mat="2">  2018,  2019,  2035,  2034</quad4>
			<quad4 id="1379" mat="2">  2019,  2020,  2036,  2035</quad4>
			<quad4 id="1380" mat="2">  2020,  2005,  2021,  2036</quad4>
		</Elements>
		<ElementData>
			<element id="1365">
				<thickness>0.01,0.01,0.01,0.01</thickness>
			</element>
			<element id="1366">
				<thickness>0.01,0.01,0.01,0.01</thickness>
			</element>
			<element id="1367">
				<thickness>0.01,0.01,0.01,0.01</thickness>
			</element>
			<element id="1368">
				<thickness>0.01,0.01,0.01,0.01</thickness>
			</element>
			<element id="1369">
				<thickness>0.01,0.01,0.01,0.01</thickness>
			</element>
			<element id="1370">
				<thickness>0.01,0.01,0.01,0.01</thickness>
			</element>
			<element id="1371">
				<thickness>0.01,0.01,0.01,0.01</thickness>
			</element>
			<element id="1372">
				<thickness>0.01,0.01,0.01,0.01</thickness>
			</element>
			<element id="1373">
				<thickness>0.01,0.01,0.01,0.01</thickness>
			</element>
			<element id="1374">
				<thickness>0.01,0.01,0.01,0.01</thickness>
			</element>
			<element id="1375">
				<thickness>0.01,0.01,0.01,0.01</thickness>
			</element>
			<element id="1376">
				<thickness>0.01,0.01,0.01,0.01</thickness>
			</element>
			<element id="1377">
				<thickness>0.01,0.01,0.01,0.01</thickness>
			</element>
			<element id="1378">
				<thickness>0.01,0.01,0.01,0.01</thickness>
			</element>
			<element id="1379">
				<thickness>0.01,0.01,0.01,0.01</thickness>
			</element>
			<element id="1380">
				<thickness>0.01,0.01,0.01,0.01</thickness>
			</element>
		</ElementData>
	</Geometry>
	<Boundary>
		<fix>
			<node id="1" bc="xyz"></node>
			<node id="2" bc="xyz"></node>
			<node id="3" bc="xy"></node>
			<node id="4" bc="xy"></node>
			<node id="2001" bc="xy"></node>
			<node id="2002" bc="xy"></node>
			<node id="2003" bc="xy"></node>
			<node id="2004" bc="xy"></node>
		</fix>
		<contact type="sliding_with_gaps">
			<tolerance>0.05</tolerance>
			<penalty>10</penalty>
			<two_pass>0</two_pass>
			<surface type="master">
				<quad4 id="1">  2424,  2431,  2430,  2423</quad4>
				<quad4 id="2">  2425,  2432,  2431,  2424</quad4>
				<quad4 id="3">  2426,  2433,  2432,  2425</quad4>
				<quad4 id="4">  2427,  2434,  2433,  2426</quad4>
				<quad4 id="5">  2428,  2435,  2434,  2427</quad4>
				<quad4 id="6">  2429,  2436,  2435,  2428</quad4>
				<quad4 id="7">  2431,  2438,  2437,  2430</quad4>
				<quad4 id="8">  2432,  2439,  2438,  2431</quad4>
				<quad4 id="9">  2433,  2440,  2439,  2432</quad4>
				<quad4 id="10">  2434,  2441,  2440,  2433</quad4>
				<quad4 id="11">  2435,  2442,  2441,  2434</quad4>
				<quad4 id="12">  2436,  2443,  2442,  2435</quad4>
				<quad4 id="13">  2438,  2445,  2444,  2437</quad4>
				<quad4 id="14">  2439,  2446,  2445,  2438</quad4>
				<quad4 id="15">  2440,  2447,  2446,  2439</quad4>
				<quad4 id="16">  2441,  2448,  2447,  2440</quad4>
				<quad4 id="17">  2442,  2449,  2448,  2441</quad4>
				<quad4 id="18">  2443,  2450,  2449,  2442</quad4>
				<quad4 id="19">  2445,  2452,  2451,  2444</quad4>
				<quad4 id="20">  2446,  2453,  2452,  2445</quad4>
<!-- ... 160 like lines cut -->
			</surface>
			<surface type="slave">
				<quad4 id="181">  1756,  1755,  1759,  1760</quad4>
				<quad4 id="182">  1760,  1759,  1763,  1764</quad4>
				<quad4 id="183">  1764,  1763,  1767,  1768</quad4>
				<quad4 id="184">  1768,  1767,  1771,  1772</quad4>
				<quad4 id="185">  1772,  1771,  1775,  1776</quad4>
				<quad4 id="186">  1776,  1775,  1779,  1780</quad4>
				<quad4 id="187">  1780,  1779,  1783,  1784</quad4>
				<quad4 id="188">  1784,  1783,  1787,  1788</quad4>
				<quad4 id="189">  1788,  1787,  1791,  1792</quad4>
				<quad4 id="190">  1792,  1791,  1795,  1796</quad4>
				<quad4 id="191">  1796,  1795,  1799,  1800</quad4>
				<quad4 id="192">  1800,  1799,  1803,  1804</quad4>
				<quad4 id="193">  1804,  1803,  1807,  1808</quad4>
				<quad4 id="194">  1808,  1807,  1811,  1812</quad4>
				<quad4 id="195">  1812,  1811,  1815,  1816</quad4>
				<quad4 id="196">  1816,  1815,  1819,  1820</quad4>
				<quad4 id="197">  1820,  1819,  1823,  1824</quad4>
				<quad4 id="198">  1824,  1823,  1827,  1828</quad4>
				<quad4 id="199">  1828,  1827,  1831,  1832</quad4>
				<quad4 id="200">  1832,  1831,  1835,  1836</quad4>
<!-- ... 42 like lines cut -->
			</surface>
		</contact>
		<contact type="rigid">
			<node id="3002" rb="2"></node>
			<node id="3003" rb="2"></node>
			<node id="3004" rb="2"></node>
			<node id="3005" rb="2"></node>
			<node id="3006" rb="2"></node>
			<node id="3007" rb="2"></node>
			<node id="3008" rb="2"></node>
			<node id="3009" rb="2"></node>
			<node id="3010" rb="2"></node>
			<node id="3011" rb="2"></node>
			<node id="3012" rb="2"></node>
			<node id="3013" rb="2"></node>
			<node id="3014" rb="2"></node>
			<node id="3015" rb="2"></node>
			<node id="3016" rb="2"></node>
			<node id="3017" rb="2"></node>
			<node id="3018" rb="2"></node>
			<node id="3019" rb="2"></node>
			<node id="3020" rb="2"></node>
			<node id="3021" rb="2"></node>
<!-- ... 173 like lines cut -->
		</contact>
		<contact type="rigid">
			<node id="3195" rb="2"></node>
			<node id="3196" rb="2"></node>
			<node id="3197" rb="2"></node>
			<node id="3198" rb="2"></node>
			<node id="3199" rb="2"></node>
			<node id="3200" rb="2"></node>
			<node id="3201" rb="2"></node>
			<node id="3202" rb="2"></node>
			<node id="3203" rb="2"></node>
			<node id="3204" rb="2"></node>
			<node id="3205" rb="2"></node>
			<node id="3206" rb="2"></node>
			<node id="3207" rb="2"></node>
			<node id="3208" rb="2"></node>
			<node id="3209" rb="2"></node>
			<node id="3210" rb="2"></node>
			<node id="3211" rb="2"></node>
			<node id="3212" rb="2"></node>
			<node id="3213" rb="2"></node>
			<node id="3214" rb="2"></node>
<!-- ... 32 like lines cut -->
		</contact>
		<contact type="sliding_with_gaps">
			<tolerance>0.05</tolerance>
			<penalty>5</penalty>
			<two_pass>0</two_pass>
			<surface type="master">
				<quad4 id="1">  3351,  3355,  3356,  3352</quad4>
				<quad4 id="2">  3352,  3356,  3357,  3353</quad4>
				<quad4 id="3">  3353,  3357,  3358,  3354</quad4>
				<quad4 id="4">  3355,  3359,  3360,  3356</quad4>
				<quad4 id="5">  3356,  3360,  3361,  3357</quad4>
				<quad4 id="6">  3357,  3361,  3362,  3358</quad4>
				<quad4 id="7">  3359,  3363,  3364,  3360</quad4>
				<quad4 id="8">  3360,  3364,  3365,  3361</quad4>
				<quad4 id="9">  3361,  3365,  3366,  3362</quad4>
				<quad4 id="10">  3354,  3367,  3370,  3353</quad4>
				<quad4 id="11">  3367,  3368,  3371,  3370</quad4>
				<quad4 id="12">  3368,  3369,  3372,  3371</quad4>
				<quad4 id="13">  3353,  3370,  3373,  3352</quad4>
				<quad4 id="14">  3370,  3371,  3374,  3373</quad4>
				<quad4 id="15">  3371,  3372,  3375,  3374</quad4>
				<quad4 id="16">  3352,  3373,  3376,  3351</quad4>
				<quad4 id="17">  3373,  3374,  3377,  3376</quad4>
				<quad4 id="18">  3374,  3375,  3378,  3377</quad4>
				<quad4 id="19">  3351,  3376,  3379,  3355</quad4>
				<quad4 id="20">  3376,  3377,  3380,  3379</quad4>
<!-- ... 25 like lines cut -->
			</surface>
			<surface type="slave">
				<quad4 id="46">  3583,  3584,  3580,  3579</quad4>
				<quad4 id="47">  3584,  3585,  3581,  3580</quad4>
				<quad4 id="48">  3585,  3586,  3582,  3581</quad4>
				<quad4 id="49">  3587,  3588,  3584,  3583</quad4>
				<quad4 id="50">  3588,  3589,  3585,  3584</quad4>
				<quad4 id="51">  3589,  3590,  3586,  3585</quad4>
				<quad4 id="52">  3591,  3592,  3588,  3587</quad4>
				<quad4 id="53">  3592,  3593,  3589,  3588</quad4>
				<quad4 id="54">  3593,  3594,  3590,  3589</quad4>
			</surface>
		</contact>
	</Boundary>
	<LoadData>
		<loadcurve id="1">
			<loadpoint>0,0</loadpoint>
			<loadpoint>1,-5</loadpoint>
		</loadcurve>
	</LoadData>
	<Step>
		<Control>
			<time_steps>20</time_steps>
			<step_size>0.05</step_size>
		</Control>
		<Boundary>
		<prescribe>
			<node id="2809" bc="z" lc="1">1</node>
			<node id="2810" bc="z" lc="1">1</node>
			<node id="2811" bc="z" lc="1">1</node>
			<node id="2812" bc="z" lc="1">1</node>
			<node id="2813" bc="z" lc="1">1</node>
			<node id="2814" bc="z" lc="1">1</node>
			<node id="2815" bc="z" lc="1">1</node>
			<node id="2816" bc="z" lc="1">1</node>
			<node id="2817" bc="z" lc="1">1</node>
			<node id="2818" bc="z" lc="1">1</node>
			<node id="2819" bc="z" lc="1">1</node>
			<node id="2820" bc="z" lc="1">1</node>
			<node id="2821" bc="z" lc="1">1</node>
			<node id="2822" bc="z" lc="1">1</node>
			<node id="2823" bc="z" lc="1">1</node>
			<node id="2824" bc="z" lc="1">1</node>
			<node id="2825" bc="z" lc="1">1</node>
			<node id="2826" bc="z" lc="1">1</node>
			<node id="2827" bc="z" lc="1">1</node>
			<node id="2828" bc="z" lc="1">1</node>
<!-- ... 173 like lines cut -->
		</prescribe>
		</Boundary>
	</Step>
	<Step>
		<Control>
			<time_steps>200</time_steps>
			<step_size>1</step_size>
			<analysis type="dynamic"></analysis>
			<time_stepper type="auto">
				<dtmin>0.05</dtmin>
				<dtmax>1</dtmax>
			</time_stepper>
		</Control>
	</Step>
</febio_spec>
