<?xml version="1.0" encoding="ISO-8859-1"?>
<febio_spec version="2.5">
	<Module type="solid"/>
	<Globals>
		<Constants>
			<T>0</T>
			<R>0</R>
			<Fc>0</Fc>
		</Constants>
	</Globals>
	<Material>
		<material id="1" name="Material1" type="neo-Hookean">
			<density>1</density>
			<E>1</E>
			<v>0.3</v>
		</material>
	</Material>
	<Geometry>
		<Nodes name="ms05">
			<node id="1">-5.0000000e-001,-5.0000000e-001, 0.0000000e+000</node>
			<node id="2">-5.0000000e-001,-5.0000000e-001, 2.5000000e-001</node>
			<node id="3">-5.0000000e-001,-5.0000000e-001, 5.0000000e-001</node>
			<node id="4">-5.0000000e-001,-5.0000000e-001, 7.5000000e-001</node>
			<node id="5">-5.0000000e-001,-5.0000000e-001, 1.0000000e+000</node>
			<node id="6">-5.0000000e-001,-2.5000000e-001, 0.0000000e+000</node>
			<node id="7">-5.0000000e-001,-2.5000000e-001, 2.5000000e-001</node>
			<node id="8">-5.0000000e-001,-2.5000000e-001, 5.0000000e-001</node>
			<node id="9">-5.0000000e-001,-2.5000000e-001, 7.5000000e-001</node>
			<node id="10">-5.0000000e-001,-2.5000000e-001, 1.0000000e+000</node>
			<node id="11">-5.0000000e-001, 0.0000000e+000, 0.0000000e+000</node>
			<node id="12">-5.0000000e-001, 0.0000000e+000, 2.5000000e-001</node>
			<node id="13">-5.0000000e-001, 0.0000000e+000, 5.0000000e-001</node>
			<node id="14">-5.0000000e-001, 0.0000000e+000, 7.5000000e-001</node>
			<node id="15">-5.0000000e-001, 0.0000000e+000, 1.0000000e+000</node>
			<node id="16">-5.0000000e-001, 2.5000000e-001, 0.0000000e+000</node>
			<node id="17">-5.0000000e-001, 2.5000000e-001, 2.5000000e-001</node>
			<node id="18">-5.0000000e-001, 2.5000000e-001, 5.0000000e-001</node>
			<node id="19">-5.0000000e-001, 2.5000000e-001, 7.5000000e-001</node>
			<node id="20">-5.0000000e-001, 2.5000000e-001, 1.0000000e+000</node>
<!-- ... 105 like lines cut -->
		</Nodes>
		<Elements type="hex8" mat="1" name="Part1">
			<elem id="1">     1,    26,    31,     6,     2,    27,    32,     7</elem>
			<elem id="2">     2,    27,    32,     7,     3,    28,    33,     8</elem>
			<elem id="3">     3,    28,    33,     8,     4,    29,    34,     9</elem>
			<elem id="4">     4,    29,    34,     9,     5,    30,    35,    10</elem>
			<elem id="5">     6,    31,    36,    11,     7,    32,    37,    12</elem>
			<elem id="6">     7,    32,    37,    12,     8,    33,    38,    13</elem>
			<elem id="7">     8,    33,    38,    13,     9,    34,    39,    14</elem>
			<elem id="8">     9,    34,    39,    14,    10,    35,    40,    15</elem>
			<elem id="9">    11,    36,    41,    16,    12,    37,    42,    17</elem>
			<elem id="10">    12,    37,    42,    17,    13,    38,    43,    18</elem>
			<elem id="11">    13,    38,    43,    18,    14,    39,    44,    19</elem>
			<elem id="12">    14,    39,    44,    19,    15,    40,    45,    20</elem>
			<elem id="13">    16,    41,    46,    21,    17,    42,    47,    22</elem>
			<elem id="14">    17,    42,    47,    22,    18,    43,    48,    23</elem>
			<elem id="15">    18,    43,    48,    23,    19,    44,    49,    24</elem>
			<elem id="16">    19,    44,    49,    24,    20,    45,    50,    25</elem>
			<elem id="17">    26,    51,    56,    31,    27,    52,    57,    32</elem>
			<elem id="18">    27,    52,    57,    32,    28,    53,    58,    33</elem>
			<elem id="19">    28,    53,    58,    33,    29,    54,    59,    34</elem>
			<elem id="20">    29,    54,    59,    34,    30,    55,    60,    35</elem>
<!-- ... 44 like lines cut -->
		</Elements>
		<NodeSet name="unnamed_set01">
			<node id="25"/>
		</NodeSet>
		<NodeSet name="fixed2">
			<node id="101"/>
			<node id="102"/>
			<node id="103"/>
			<node id="104"/>
			<node id="105"/>
			<node id="106"/>
			<node id="107"/>
			<node id="108"/>
			<node id="109"/>
			<node id="110"/>
			<node id="111"/>
			<node id="112"/>
			<node id="113"/>
			<node id="114"/>
			<node id="115"/>
			<node id="116"/>
			<node id="117"/>
			<node id="118"/>
			<node id="119"/>
			<node id="120"/>
<!-- ... 5 like lines cut -->
		</NodeSet>
		<NodeSet name="prescribed">
			<node id="101"/>
			<node id="102"/>
			<node id="103"/>
			<node id="104"/>
			<node id="105"/>
			<node id="106"/>
			<node id="107"/>
			<node id="108"/>
			<node id="109"/>
			<node id="110"/>
			<node id="111"/>
			<node id="112"/>
			<node id="113"/>
			<node id="114"/>
			<node id="115"/>
			<node id="116"/>
			<node id="117"/>
			<node id="118"/>
			<node id="119"/>
			<node id="120"/>
<!-- ... 5 like lines cut -->
		</NodeSet>
		<NodeSet name="fixed">
			<node id="1"/>
			<node id="2"/>
			<node id="3"/>
			<node id="4"/>
			<node id="5"/>
			<node id="6"/>
			<node id="7"/>
			<node id="8"/>
			<node id="9"/>
			<node id="10"/>
			<node id="11"/>
			<node id="12"/>
			<node id="13"/>
			<node id="14"/>
			<node id="15"/>
			<node id="16"/>
			<node id="17"/>
			<node id="18"/>
			<node id="19"/>
			<node id="20"/>
<!-- ... 5 like lines cut -->
		</NodeSet>
		<NodeSet name="unnamed_set01">
			<node id="25"/>
		</NodeSet>
	</Geometry>
	<Boundary>
		<fix bc="y,z" node_set="fixed2"/>
		<prescribe bc="x" node_set="prescribed">
			<scale lc="1">1</scale>
			<relative>0</relative>
		</prescribe>
	</Boundary>
	<LoadData>
		<loadcurve id="1" type="smooth">
			<point>0,0</point>
			<point>1,1</point>
		</loadcurve>
	</LoadData>
	<Output>
		<plotfile type="febio">
			<var type="acceleration"/>
			<var type="displacement"/>
			<var type="stress"/>
			<var type="velocity"/>
		</plotfile>
		<logfile>
			<node_data data="ax" node_set="unnamed_set01"/>
		</logfile>
	</Output>
	<Step name="Step01">
		<Control>
			<time_steps>10</time_steps>
			<step_size>0.1</step_size>
			<max_refs>15</max_refs>
			<max_ups>10</max_ups>
			<diverge_reform>1</diverge_reform>
			<reform_each_time_step>1</reform_each_time_step>
			<dtol>0.001</dtol>
			<etol>0.01</etol>
			<rtol>0</rtol>
			<lstol>0.9</lstol>
			<min_residual>1e-020</min_residual>
			<qnmethod>0</qnmethod>
			<time_stepper>
				<dtmin>0.01</dtmin>
				<dtmax>0.1</dtmax>
				<max_retries>5</max_retries>
				<opt_iter>10</opt_iter>
			</time_stepper>
			<analysis type="static"/>
		</Control>
		<Boundary>
			<fix bc="x,y,z" node_set="fixed"/>
		</Boundary>
	</Step>
	<Step name="Step02">
		<Control>
			<time_steps>40</time_steps>
			<step_size>0.1</step_size>
			<max_refs>15</max_refs>
			<max_ups>10</max_ups>
			<diverge_reform>1</diverge_reform>
			<reform_each_time_step>1</reform_each_time_step>
			<dtol>0.001</dtol>
			<etol>0.01</etol>
			<rtol>0</rtol>
			<lstol>0.9</lstol>
			<min_residual>1e-020</min_residual>
			<qnmethod>0</qnmethod>
			<time_stepper>
				<dtmin>0.01</dtmin>
				<dtmax>0.1</dtmax>
				<max_retries>5</max_retries>
				<opt_iter>10</opt_iter>
			</time_stepper>
			<analysis type="dynamic"/>
			<alpha>1</alpha>
			<beta>0.25</beta>
			<gamma>0.5</gamma>
		</Control>
	</Step>
</febio_spec>
