<?xml version="1.0" encoding="ISO-8859-1"?>
<febio_spec version="4.0">
	<Module type="solid">
		<units>SI</units>
	</Module>
	<Control>
		<analysis>STATIC</analysis>
		<time_steps>10</time_steps>
		<step_size>0.1</step_size>
		<plot_zero_state>0</plot_zero_state>
		<plot_range>0,-1</plot_range>
		<plot_level>PLOT_MAJOR_ITRS</plot_level>
		<output_level>OUTPUT_MAJOR_ITRS</output_level>
		<plot_stride>1</plot_stride>
		<output_stride>1</output_stride>
		<adaptor_re_solve>1</adaptor_re_solve>
		<time_stepper type="default">
			<max_retries>5</max_retries>
			<opt_iter>11</opt_iter>
			<dtmin>0</dtmin>
			<dtmax>0.1</dtmax>
			<aggressiveness>0</aggressiveness>
			<cutback>0.5</cutback>
			<dtforce>0</dtforce>
		</time_stepper>
		<solver type="solid">
			<symmetric_stiffness>symmetric</symmetric_stiffness>
			<equation_scheme>staggered</equation_scheme>
			<equation_order>default</equation_order>
			<optimize_bw>0</optimize_bw>
			<lstol>0.9</lstol>
			<lsmin>0.01</lsmin>
			<lsiter>5</lsiter>
			<ls_check_jacobians>0</ls_check_jacobians>
			<max_refs>15</max_refs>
			<check_zero_diagonal>0</check_zero_diagonal>
			<zero_diagonal_tol>0</zero_diagonal_tol>
			<force_partition>0</force_partition>
			<reform_each_time_step>1</reform_each_time_step>
			<reform_augment>0</reform_augment>
			<diverge_reform>1</diverge_reform>
			<min_residual>1e-20</min_residual>
			<max_residual>0</max_residual>
			<dtol>0.001</dtol>
			<etol>0.01</etol>
			<rtol>0</rtol>
			<rhoi>-2</rhoi>
			<alpha>1</alpha>
			<beta>0.25</beta>
			<gamma>0.5</gamma>
			<logSolve>0</logSolve>
			<arc_length>0</arc_length>
			<arc_length_scale>0</arc_length_scale>
			<qn_method type="BFGS">
				<max_ups>10</max_ups>
				<max_buffer_size>0</max_buffer_size>
				<cycle_buffer>1</cycle_buffer>
				<cmax>100000</cmax>
			</qn_method>
		</solver>
	</Control>
	<Globals>
		<Constants>
			<T>0</T>
			<P>0</P>
			<R>8.31446</R>
			<Fc>96485.3</Fc>
		</Constants>
	</Globals>
	<Material>
		<material id="1" name="Material1" type="neo-Hookean">
			<density>1</density>
			<E>1</E>
			<v>0.3</v>
		</material>
	</Material>
	<Mesh>
		<Nodes name="MergedObject1">
			<node id="1">-0.5,-0.5,0</node>
			<node id="2">0.5,-0.5,0</node>
			<node id="3">0.5,0.5,0</node>
			<node id="4">-0.5,0.5,0</node>
			<node id="5">-0.4,-0.5,0</node>
			<node id="6">-0.3,-0.5,0</node>
			<node id="7">-0.2,-0.5,0</node>
			<node id="8">-0.1,-0.5,0</node>
			<node id="9">0,-0.5,0</node>
			<node id="10">0.1,-0.5,0</node>
			<node id="11">0.2,-0.5,0</node>
			<node id="12">0.3,-0.5,0</node>
			<node id="13">0.4,-0.5,0</node>
			<node id="14">0.5,-0.4,0</node>
			<node id="15">0.5,-0.3,0</node>
			<node id="16">0.5,-0.2,0</node>
			<node id="17">0.5,-0.1,0</node>
			<node id="18">0.5,0,0</node>
			<node id="19">0.5,0.1,0</node>
			<node id="20">0.5,0.2,0</node>
<!-- ... 222 like lines cut -->
		</Nodes>
		<Elements type="quad4" name="Part1">
			<elem id="1">1,5,41,40</elem>
			<elem id="2">5,6,42,41</elem>
			<elem id="3">6,7,43,42</elem>
			<elem id="4">7,8,44,43</elem>
			<elem id="5">8,9,45,44</elem>
			<elem id="6">9,10,46,45</elem>
			<elem id="7">10,11,47,46</elem>
			<elem id="8">11,12,48,47</elem>
			<elem id="9">12,13,49,48</elem>
			<elem id="10">13,2,14,49</elem>
			<elem id="11">40,41,50,39</elem>
			<elem id="12">41,42,51,50</elem>
			<elem id="13">42,43,52,51</elem>
			<elem id="14">43,44,53,52</elem>
			<elem id="15">44,45,54,53</elem>
			<elem id="16">45,46,55,54</elem>
			<elem id="17">46,47,56,55</elem>
			<elem id="18">47,48,57,56</elem>
			<elem id="19">48,49,58,57</elem>
			<elem id="20">49,14,15,58</elem>
<!-- ... 80 like lines cut -->
		</Elements>
		<Elements type="quad4" name="Part3">
			<elem id="101">122,126,162,161</elem>
			<elem id="102">126,127,163,162</elem>
			<elem id="103">127,128,164,163</elem>
			<elem id="104">128,129,165,164</elem>
			<elem id="105">129,130,166,165</elem>
			<elem id="106">130,131,167,166</elem>
			<elem id="107">131,132,168,167</elem>
			<elem id="108">132,133,169,168</elem>
			<elem id="109">133,134,170,169</elem>
			<elem id="110">134,123,135,170</elem>
			<elem id="111">161,162,171,160</elem>
			<elem id="112">162,163,172,171</elem>
			<elem id="113">163,164,173,172</elem>
			<elem id="114">164,165,174,173</elem>
			<elem id="115">165,166,175,174</elem>
			<elem id="116">166,167,176,175</elem>
			<elem id="117">167,168,177,176</elem>
			<elem id="118">168,169,178,177</elem>
			<elem id="119">169,170,179,178</elem>
			<elem id="120">170,135,136,179</elem>
<!-- ... 80 like lines cut -->
		</Elements>
		<Edge name="ZeroDisplacement1">
			<line2 id="1">40,1</line2>
			<line2 id="2">39,40</line2>
			<line2 id="3">38,39</line2>
			<line2 id="4">37,38</line2>
			<line2 id="5">36,37</line2>
			<line2 id="6">35,36</line2>
			<line2 id="7">34,35</line2>
			<line2 id="8">33,34</line2>
			<line2 id="9">32,33</line2>
			<line2 id="10">4,32</line2>
		</Edge>
		<Edge name="ZeroShellDisplacement2">
			<line2 id="1">40,1</line2>
			<line2 id="2">39,40</line2>
			<line2 id="3">38,39</line2>
			<line2 id="4">37,38</line2>
			<line2 id="5">36,37</line2>
			<line2 id="6">35,36</line2>
			<line2 id="7">34,35</line2>
			<line2 id="8">33,34</line2>
			<line2 id="9">32,33</line2>
			<line2 id="10">4,32</line2>
		</Edge>
		<Edge name="ZeroDisplacement3">
			<line2 id="1">123,135</line2>
			<line2 id="2">135,136</line2>
			<line2 id="3">136,137</line2>
			<line2 id="4">137,138</line2>
			<line2 id="5">138,139</line2>
			<line2 id="6">139,140</line2>
			<line2 id="7">140,141</line2>
			<line2 id="8">141,142</line2>
			<line2 id="9">142,143</line2>
			<line2 id="10">143,124</line2>
		</Edge>
		<Edge name="ZeroShellDisplacement4">
			<line2 id="1">123,135</line2>
			<line2 id="2">135,136</line2>
			<line2 id="3">136,137</line2>
			<line2 id="4">137,138</line2>
			<line2 id="5">138,139</line2>
			<line2 id="6">139,140</line2>
			<line2 id="7">140,141</line2>
			<line2 id="8">141,142</line2>
			<line2 id="9">142,143</line2>
			<line2 id="10">143,124</line2>
		</Edge>
	</Mesh>
	<MeshDomains>
		<ShellDomain name="Part1" mat="Material1">
			<shell_thickness>0.1</shell_thickness>
		</ShellDomain>
		<ShellDomain name="Part3" mat="Material1">
			<shell_thickness>0.1</shell_thickness>
		</ShellDomain>
	</MeshDomains>
	<Boundary>
		<bc name="ZeroDisplacement1" node_set="@edge:ZeroDisplacement1" type="zero displacement">
			<x_dof>1</x_dof>
			<y_dof>1</y_dof>
			<z_dof>1</z_dof>
		</bc>
		<bc name="ZeroShellDisplacement2" node_set="@edge:ZeroShellDisplacement2" type="zero shell displacement">
			<sx_dof>1</sx_dof>
			<sy_dof>1</sy_dof>
			<sz_dof>1</sz_dof>
		</bc>
		<bc name="ZeroDisplacement3" node_set="@edge:ZeroDisplacement3" type="zero displacement">
			<x_dof>1</x_dof>
			<y_dof>1</y_dof>
			<z_dof>1</z_dof>
		</bc>
		<bc name="ZeroShellDisplacement4" node_set="@edge:ZeroShellDisplacement4" type="zero shell displacement">
			<sx_dof>1</sx_dof>
			<sy_dof>1</sy_dof>
			<sz_dof>1</sz_dof>
		</bc>
	</Boundary>
	<Constraints>
		<constraint name="NodeDistance1" type="node distance">
			<laugon>0</laugon>
			<augtol>0.01</augtol>
			<penalty lc="1">1</penalty>
			<node>21,154</node>
			<minaug>0</minaug>
			<maxaug>10</maxaug>
			<target>0</target>
			<relative>0</relative>
		</constraint>
		<constraint name="NodeDistance2" type="node distance">
			<laugon>0</laugon>
			<augtol>0.01</augtol>
			<penalty lc="1">1</penalty>
			<node>19,156</node>
			<minaug>0</minaug>
			<maxaug>10</maxaug>
			<target>0</target>
			<relative>0</relative>
		</constraint>
		<constraint name="NodeDistance3" type="node distance">
			<laugon>0</laugon>
			<augtol>0.01</augtol>
			<penalty lc="1">1</penalty>
			<node>17,158</node>
			<minaug>0</minaug>
			<maxaug>10</maxaug>
			<target>0</target>
			<relative>0</relative>
		</constraint>
		<constraint name="NodeDistance4" type="node distance">
			<laugon>0</laugon>
			<augtol>0.01</augtol>
			<penalty lc="1">1</penalty>
			<node>15,160</node>
			<minaug>0</minaug>
			<maxaug>10</maxaug>
			<target>0</target>
			<relative>0</relative>
		</constraint>
	</Constraints>
	<LoadData>
		<load_controller id="1" name="LC1" type="loadcurve">
			<interpolate>LINEAR</interpolate>
			<extend>CONSTANT</extend>
			<points>
				<pt>0,0</pt>
				<pt>1,1e-1</pt>
			</points>
		</load_controller>
	</LoadData>
	<Output>
		<plotfile type="febio">
			<var type="displacement"/>
			<var type="stress"/>
			<var type="relative volume"/>
		</plotfile>
	</Output>
</febio_spec>
