<?xml version="1.0" encoding="ISO-8859-1"?>
<!--
Problem Description:
	Optimization input file for op01.feb.  One end of a cylindrical tube of Veronda-Westmann material
	is rigidly connected to a rigid body that is displaced 1 unit in the z-direction at t = 6.
Main Features:
	Optimization
Secondary Features:
	
Materials:
	Veronda-Westmann
	Rigid body
Degrees of Freedom: 5953
Results:
	Steps Completed: 10
	Equilibrium Iterations: 29
	Right Hand Evaluations: 39
	Siffness Reformations: 29
	Other:
		The maximum effective Lagrange strain is 0.32 at time t = 6.
		Note that these results are for the optimized parameters:
		VWMaterial.c1   : 0.01
		VWMaterial.c2   : 9.2333
Comments:
	
-->
<febio_spec version="2.5">
	<Module type="solid"/>
	<Control>
		<time_steps>10</time_steps>
		<step_size>0.6</step_size>
		<max_refs>15</max_refs>
		<max_ups>0</max_ups>
		<diverge_reform>1</diverge_reform>
		<reform_each_time_step>1</reform_each_time_step>
		<dtol>0.001</dtol>
		<etol>0.01</etol>
		<rtol>0</rtol>
		<lstol>0.9</lstol>
		<min_residual>1e-020</min_residual>
		<qnmethod>0</qnmethod>
		<time_stepper>
			<dtmin>0.01</dtmin>
			<dtmax>0.6</dtmax>
			<max_retries>5</max_retries>
			<opt_iter>10</opt_iter>
		</time_stepper>
		<analysis type="static"/>
	</Control>
	<Globals>
		<Constants>
			<T>0</T>
			<R>0</R>
			<Fc>0</Fc>
		</Constants>
	</Globals>
	<Material>
		<material id="1" name="VWMaterial" type="Veronda-Westmann">
			<density>9.6e-007</density>
			<c1>0.01</c1>
			<c2>0.11</c2>
			<k>100</k>
		</material>
		<material id="2" name="rigid" type="rigid body">
			<density>1</density>
			<center_of_mass>0,0,0</center_of_mass>
		</material>
	</Material>
	<Geometry>
		<Nodes name="oi01">
			<node id="1"> 4.5000000e-001, 0.0000000e+000, 0.0000000e+000</node>
			<node id="2"> 5.0000000e-001, 0.0000000e+000, 0.0000000e+000</node>
			<node id="3"> 4.4135338e-001, 8.7790643e-002, 0.0000000e+000</node>
			<node id="4"> 4.9039264e-001, 9.7545159e-002, 0.0000000e+000</node>
			<node id="5"> 4.1574579e-001, 1.7220754e-001, 0.0000000e+000</node>
			<node id="6"> 4.6193977e-001, 1.9134171e-001, 0.0000000e+000</node>
			<node id="7"> 3.7416133e-001, 2.5000660e-001, 0.0000000e+000</node>
			<node id="8"> 4.1573481e-001, 2.7778511e-001, 0.0000000e+000</node>
			<node id="9"> 3.1819806e-001, 3.1819805e-001, 0.0000000e+000</node>
			<node id="10"> 3.5355340e-001, 3.5355339e-001, 0.0000000e+000</node>
			<node id="11"> 2.5000661e-001, 3.7416132e-001, 0.0000000e+000</node>
			<node id="12"> 2.7778512e-001, 4.1573480e-001, 0.0000000e+000</node>
			<node id="13"> 1.7220755e-001, 4.1574579e-001, 0.0000000e+000</node>
			<node id="14"> 1.9134173e-001, 4.6193976e-001, 0.0000000e+000</node>
			<node id="15"> 8.7790655e-002, 4.4135337e-001, 0.0000000e+000</node>
			<node id="16"> 9.7545173e-002, 4.9039264e-001, 0.0000000e+000</node>
			<node id="17"> 1.2057703e-008, 4.5000000e-001, 0.0000000e+000</node>
			<node id="18"> 1.3397448e-008, 5.0000000e-001, 0.0000000e+000</node>
			<node id="19">-8.7790632e-002, 4.4135338e-001, 0.0000000e+000</node>
			<node id="20">-9.7545146e-002, 4.9039264e-001, 0.0000000e+000</node>
<!-- ... 2092 like lines cut -->
		</Nodes>
		<Elements type="hex8" mat="1" name="Part1">
			<elem id="1">     1,     2,     4,     3,    65,    66,    68,    67</elem>
			<elem id="2">     3,     4,     6,     5,    67,    68,    70,    69</elem>
			<elem id="3">     5,     6,     8,     7,    69,    70,    72,    71</elem>
			<elem id="4">     7,     8,    10,     9,    71,    72,    74,    73</elem>
			<elem id="5">     9,    10,    12,    11,    73,    74,    76,    75</elem>
			<elem id="6">    11,    12,    14,    13,    75,    76,    78,    77</elem>
			<elem id="7">    13,    14,    16,    15,    77,    78,    80,    79</elem>
			<elem id="8">    15,    16,    18,    17,    79,    80,    82,    81</elem>
			<elem id="9">    17,    18,    20,    19,    81,    82,    84,    83</elem>
			<elem id="10">    19,    20,    22,    21,    83,    84,    86,    85</elem>
			<elem id="11">    21,    22,    24,    23,    85,    86,    88,    87</elem>
			<elem id="12">    23,    24,    26,    25,    87,    88,    90,    89</elem>
			<elem id="13">    25,    26,    28,    27,    89,    90,    92,    91</elem>
			<elem id="14">    27,    28,    30,    29,    91,    92,    94,    93</elem>
			<elem id="15">    29,    30,    32,    31,    93,    94,    96,    95</elem>
			<elem id="16">    31,    32,    34,    33,    95,    96,    98,    97</elem>
			<elem id="17">    33,    34,    36,    35,    97,    98,   100,    99</elem>
			<elem id="18">    35,    36,    38,    37,    99,   100,   102,   101</elem>
			<elem id="19">    37,    38,    40,    39,   101,   102,   104,   103</elem>
			<elem id="20">    39,    40,    42,    41,   103,   104,   106,   105</elem>
<!-- ... 1004 like lines cut -->
		</Elements>
		<NodeSet name="FixedDisplacement01">
			<node id="1"/>
			<node id="2"/>
			<node id="3"/>
			<node id="4"/>
			<node id="5"/>
			<node id="6"/>
			<node id="7"/>
			<node id="8"/>
			<node id="9"/>
			<node id="10"/>
			<node id="11"/>
			<node id="12"/>
			<node id="13"/>
			<node id="14"/>
			<node id="15"/>
			<node id="16"/>
			<node id="17"/>
			<node id="18"/>
			<node id="19"/>
			<node id="20"/>
<!-- ... 44 like lines cut -->
		</NodeSet>
		<NodeSet name="FixedDisplacement02">
			<node id="1"/>
			<node id="2"/>
			<node id="3"/>
			<node id="4"/>
			<node id="5"/>
			<node id="6"/>
			<node id="7"/>
			<node id="8"/>
			<node id="9"/>
			<node id="10"/>
			<node id="11"/>
			<node id="12"/>
			<node id="13"/>
			<node id="14"/>
			<node id="15"/>
			<node id="16"/>
			<node id="17"/>
			<node id="18"/>
			<node id="19"/>
			<node id="20"/>
<!-- ... 44 like lines cut -->
		</NodeSet>
		<NodeSet name="FixedDisplacement03">
			<node id="1"/>
			<node id="2"/>
			<node id="3"/>
			<node id="4"/>
			<node id="5"/>
			<node id="6"/>
			<node id="7"/>
			<node id="8"/>
			<node id="9"/>
			<node id="10"/>
			<node id="11"/>
			<node id="12"/>
			<node id="13"/>
			<node id="14"/>
			<node id="15"/>
			<node id="16"/>
			<node id="17"/>
			<node id="18"/>
			<node id="19"/>
			<node id="20"/>
<!-- ... 44 like lines cut -->
		</NodeSet>
		<NodeSet name="RigidNodeset 1">
			<node id="2049"/>
			<node id="2050"/>
			<node id="2051"/>
			<node id="2052"/>
			<node id="2053"/>
			<node id="2054"/>
			<node id="2055"/>
			<node id="2056"/>
			<node id="2057"/>
			<node id="2058"/>
			<node id="2059"/>
			<node id="2060"/>
			<node id="2061"/>
			<node id="2062"/>
			<node id="2063"/>
			<node id="2064"/>
			<node id="2065"/>
			<node id="2066"/>
			<node id="2067"/>
			<node id="2068"/>
<!-- ... 44 like lines cut -->
		</NodeSet>
	</Geometry>
	<Boundary>
		<fix bc="z" node_set="FixedDisplacement01"/>
		<fix bc="y" node_set="FixedDisplacement02"/>
		<fix bc="x" node_set="FixedDisplacement03"/>
		<rigid name="RigidInterface02" rb="2" node_set="RigidNodeset 1"/>
		<rigid_body mat="2">
			<fixed bc="x"/>
			<fixed bc="y"/>
			<fixed bc="Rx"/>
			<fixed bc="Ry"/>
			<fixed bc="Rz"/>
		</rigid_body>
		<rigid_body mat="2">
			<prescribed bc="z" lc="1">1</prescribed>
		</rigid_body>
	</Boundary>
	<Contact>
	</Contact>
	<LoadData>
		<loadcurve id="1" type="smooth">
			<point>0,0</point>
			<point>6,1</point>
		</loadcurve>
	</LoadData>
	<Output>
		<plotfile type="febio">
			<var type="displacement"/>
			<var type="stress"/>
		</plotfile>
		<logfile>
			<rigid_body_data data="Fz"/>
		</logfile>
	</Output>
</febio_spec>
