<?xml version="1.0" encoding="ISO-8859-1"?>
<!--
Optimization input file for op01.feb.  One end of a cylindrical tube of Veronda-Westmann material
is rigidly connected to a rigid body that is displaced 1 unit in the z-direction at t = 6.
-->
<febio_spec version="3.0">
	<Module type="solid"/>
	<Control>
		<analysis>STATIC</analysis>
		<time_steps>10</time_steps>
		<step_size>0.6</step_size>
		<solver>
			<max_refs>15</max_refs>
			<max_ups>0</max_ups>
			<diverge_reform>1</diverge_reform>
			<reform_each_time_step>1</reform_each_time_step>
			<dtol>0.001</dtol>
			<etol>0.01</etol>
			<rtol>0</rtol>
			<lstol>0.9</lstol>
			<min_residual>1e-20</min_residual>
			<qnmethod>BFGS</qnmethod>
			<rhoi>-2</rhoi>
		</solver>
		<time_stepper>
			<dtmin>0.01</dtmin>
			<dtmax>0.6</dtmax>
			<max_retries>5</max_retries>
			<opt_iter>10</opt_iter>
		</time_stepper>
	</Control>
	<Globals>
		<Constants>
			<T>0</T>
			<R>0</R>
			<Fc>0</Fc>
		</Constants>
	</Globals>
	<Material>
		<material id="1" name="VWMaterial" type="Veronda-Westmann">
			<density>9.6e-07</density>
			<c1>0.01</c1>
			<c2>0.11</c2>
			<k>100</k>
		</material>
		<material id="2" name="rigid" type="rigid body">
			<density>1</density>
			<center_of_mass>0,0,0</center_of_mass>
		</material>
	</Material>
	<Mesh>
		<Nodes name="Object01">
			<node id="1">0.45,0,0</node>
			<node id="2">0.5,0,0</node>
			<node id="3">0.44135338,0.087790643,0</node>
			<node id="4">0.49039264,0.097545159,0</node>
			<node id="5">0.41574579,0.17220754,0</node>
			<node id="6">0.46193977,0.19134171,0</node>
			<node id="7">0.37416133,0.2500066,0</node>
			<node id="8">0.41573481,0.27778511,0</node>
			<node id="9">0.31819806,0.31819805,0</node>
			<node id="10">0.3535534,0.35355339,0</node>
			<node id="11">0.25000661,0.37416132,0</node>
			<node id="12">0.27778512,0.4157348,0</node>
			<node id="13">0.17220755,0.41574579,0</node>
			<node id="14">0.19134173,0.46193976,0</node>
			<node id="15">0.087790655,0.44135337,0</node>
			<node id="16">0.097545173,0.49039264,0</node>
			<node id="17">1.2057703e-08,0.45,0</node>
			<node id="18">1.3397448e-08,0.5,0</node>
			<node id="19">-0.087790632,0.44135338,0</node>
			<node id="20">-0.097545146,0.49039264,0</node>
<!-- ... 2092 like lines cut -->
		</Nodes>
		<Elements type="hex8" name="Part1">
			<elem id="1">1,2,4,3,65,66,68,67</elem>
			<elem id="2">3,4,6,5,67,68,70,69</elem>
			<elem id="3">5,6,8,7,69,70,72,71</elem>
			<elem id="4">7,8,10,9,71,72,74,73</elem>
			<elem id="5">9,10,12,11,73,74,76,75</elem>
			<elem id="6">11,12,14,13,75,76,78,77</elem>
			<elem id="7">13,14,16,15,77,78,80,79</elem>
			<elem id="8">15,16,18,17,79,80,82,81</elem>
			<elem id="9">17,18,20,19,81,82,84,83</elem>
			<elem id="10">19,20,22,21,83,84,86,85</elem>
			<elem id="11">21,22,24,23,85,86,88,87</elem>
			<elem id="12">23,24,26,25,87,88,90,89</elem>
			<elem id="13">25,26,28,27,89,90,92,91</elem>
			<elem id="14">27,28,30,29,91,92,94,93</elem>
			<elem id="15">29,30,32,31,93,94,96,95</elem>
			<elem id="16">31,32,34,33,95,96,98,97</elem>
			<elem id="17">33,34,36,35,97,98,100,99</elem>
			<elem id="18">35,36,38,37,99,100,102,101</elem>
			<elem id="19">37,38,40,39,101,102,104,103</elem>
			<elem id="20">39,40,42,41,103,104,106,105</elem>
<!-- ... 1004 like lines cut -->
		</Elements>
		<NodeSet name="FixedDisplacement01">
			<n id="1"/>
			<n id="2"/>
			<n id="3"/>
			<n id="4"/>
			<n id="5"/>
			<n id="6"/>
			<n id="7"/>
			<n id="8"/>
			<n id="9"/>
			<n id="10"/>
			<n id="11"/>
			<n id="12"/>
			<n id="13"/>
			<n id="14"/>
			<n id="15"/>
			<n id="16"/>
			<n id="17"/>
			<n id="18"/>
			<n id="19"/>
			<n id="20"/>
<!-- ... 44 like lines cut -->
		</NodeSet>
		<NodeSet name="FixedDisplacement02">
			<n id="1"/>
			<n id="2"/>
			<n id="3"/>
			<n id="4"/>
			<n id="5"/>
			<n id="6"/>
			<n id="7"/>
			<n id="8"/>
			<n id="9"/>
			<n id="10"/>
			<n id="11"/>
			<n id="12"/>
			<n id="13"/>
			<n id="14"/>
			<n id="15"/>
			<n id="16"/>
			<n id="17"/>
			<n id="18"/>
			<n id="19"/>
			<n id="20"/>
<!-- ... 44 like lines cut -->
		</NodeSet>
		<NodeSet name="FixedDisplacement03">
			<n id="1"/>
			<n id="2"/>
			<n id="3"/>
			<n id="4"/>
			<n id="5"/>
			<n id="6"/>
			<n id="7"/>
			<n id="8"/>
			<n id="9"/>
			<n id="10"/>
			<n id="11"/>
			<n id="12"/>
			<n id="13"/>
			<n id="14"/>
			<n id="15"/>
			<n id="16"/>
			<n id="17"/>
			<n id="18"/>
			<n id="19"/>
			<n id="20"/>
<!-- ... 44 like lines cut -->
		</NodeSet>
		<NodeSet name="RigidNodeset 1">
			<n id="2049"/>
			<n id="2050"/>
			<n id="2051"/>
			<n id="2052"/>
			<n id="2053"/>
			<n id="2054"/>
			<n id="2055"/>
			<n id="2056"/>
			<n id="2057"/>
			<n id="2058"/>
			<n id="2059"/>
			<n id="2060"/>
			<n id="2061"/>
			<n id="2062"/>
			<n id="2063"/>
			<n id="2064"/>
			<n id="2065"/>
			<n id="2066"/>
			<n id="2067"/>
			<n id="2068"/>
<!-- ... 44 like lines cut -->
		</NodeSet>
	</Mesh>
	<MeshDomains>
		<SolidDomain name="Part1" mat="VWMaterial"/>
	</MeshDomains>
	<Boundary>
		<bc name="FixedDisplacement01" type="fix" node_set="FixedDisplacement01">
			<dofs>z</dofs>
		</bc>
		<bc name="FixedDisplacement02" type="fix" node_set="FixedDisplacement02">
			<dofs>y</dofs>
		</bc>
		<bc name="FixedDisplacement03" type="fix" node_set="FixedDisplacement03">
			<dofs>x</dofs>
		</bc>
		<bc name="RigidInterface02" type="rigid" node_set="RigidNodeset 1">
			<rb>2</rb>
		</bc>
	</Boundary>
	<Rigid>
		<rigid_constraint name="RigidFixed04" type="fix">
			<rb>2</rb>
			<dofs>Rx,Ry,Ru,Rv,Rw</dofs>
		</rigid_constraint>
		<rigid_constraint name="RigidDisplacement04" type="prescribe">
			<rb>2</rb>
			<dof>Rz</dof>
			<value lc="1">1</value>
			<relative>0</relative>
		</rigid_constraint>
	</Rigid>
	<Contact>
	</Contact>
	<LoadData>
		<load_controller id="1" type="loadcurve">
			<interpolate>SMOOTH</interpolate>
			<points>
				<point>0,0</point>
				<point>6,1</point>
			</points>
		</load_controller>
	</LoadData>
	<Output>
		<plotfile type="febio">
			<var type="displacement"/>
			<var type="stress"/>
		</plotfile>
		<logfile>
			<rigid_body_data data="Fz"/>
		</logfile>
	</Output>
</febio_spec>
