<?xml version="1.0" encoding="ISO-8859-1"?>
<!--
Input problem for op08.
-->
<febio_spec version="3.0">
	<Module type="solid"/>
	<Control>
		<analysis>STATIC</analysis>
		<time_steps>10</time_steps>
		<step_size>0.1</step_size>
		<solver>
			<max_refs>15</max_refs>
			<max_ups>10</max_ups>
			<diverge_reform>1</diverge_reform>
			<reform_each_time_step>1</reform_each_time_step>
			<dtol>0.001</dtol>
			<etol>0.01</etol>
			<rtol>0</rtol>
			<lstol>0.9</lstol>
			<min_residual>1e-20</min_residual>
			<qnmethod>BFGS</qnmethod>
			<rhoi>0</rhoi>
		</solver>
		<time_stepper>
			<dtmin>0.01</dtmin>
			<dtmax>0.1</dtmax>
			<max_retries>5</max_retries>
			<opt_iter>10</opt_iter>
		</time_stepper>
	</Control>
	<Globals>
		<Constants>
			<T>0</T>
			<R>0</R>
			<Fc>0</Fc>
		</Constants>
	</Globals>
	<Material>
		<material id="1" name="Material1" type="neo-Hookean">
			<density>1</density>
			<E>1</E>
			<v>0.3</v>
		</material>
	</Material>
	<Mesh>
		<Nodes name="Object2">
			<node id="1">-0.353553391,-0.353553391,-0.353553391</node>
			<node id="2">0,-0.353553391,-0.353553391</node>
			<node id="3">0.353553391,-0.353553391,-0.353553391</node>
			<node id="4">-0.353553391,0,-0.353553391</node>
			<node id="5">0,0,-0.353553391</node>
			<node id="6">0.353553391,0,-0.353553391</node>
			<node id="7">-0.353553391,0.353553391,-0.353553391</node>
			<node id="8">0,0.353553391,-0.353553391</node>
			<node id="9">0.353553391,0.353553391,-0.353553391</node>
			<node id="10">-0.353553391,-0.353553391,0</node>
			<node id="11">0,-0.353553391,0</node>
			<node id="12">0.353553391,-0.353553391,0</node>
			<node id="13">-0.353553391,0,0</node>
			<node id="14">0,0,0</node>
			<node id="15">0.353553391,0,0</node>
			<node id="16">-0.353553391,0.353553391,0</node>
			<node id="17">0,0.353553391,0</node>
			<node id="18">0.353553391,0.353553391,0</node>
			<node id="19">-0.353553391,-0.353553391,0.353553391</node>
			<node id="20">0,-0.353553391,0.353553391</node>
<!-- ... 2253 like lines cut -->
		</Nodes>
		<Elements type="hex8" name="Part2">
			<elem id="1">1,54,480,86,65,438,1410,467</elem>
			<elem id="2">54,55,481,480,438,439,1411,1410</elem>
			<elem id="3">55,56,482,481,439,440,1412,1411</elem>
			<elem id="4">56,2,66,482,440,57,447,1412</elem>
			<elem id="5">86,480,477,85,467,1410,1413,466</elem>
			<elem id="6">480,481,478,477,1410,1411,1414,1413</elem>
			<elem id="7">481,482,479,478,1411,1412,1415,1414</elem>
			<elem id="8">482,66,67,479,1412,447,448,1415</elem>
			<elem id="9">85,477,474,84,466,1413,1416,465</elem>
			<elem id="10">477,478,475,474,1413,1414,1417,1416</elem>
			<elem id="11">478,479,476,475,1414,1415,1418,1417</elem>
			<elem id="12">479,67,68,476,1415,448,449,1418</elem>
			<elem id="13">84,474,77,4,465,1416,458,78</elem>
			<elem id="14">474,475,76,77,1416,1417,457,458</elem>
			<elem id="15">475,476,75,76,1417,1418,456,457</elem>
			<elem id="16">476,68,5,75,1418,449,69,456</elem>
			<elem id="17">65,438,1410,467,64,441,1419,470</elem>
			<elem id="18">438,439,1411,1410,441,442,1420,1419</elem>
			<elem id="19">439,440,1412,1411,442,443,1421,1420</elem>
			<elem id="20">440,57,447,1412,443,58,450,1421</elem>
<!-- ... 2028 like lines cut -->
		</Elements>
		<NodeSet name="FixedDisplacement1">
			<n id="29"/>
			<n id="32"/>
			<n id="35"/>
			<n id="38"/>
			<n id="43"/>
			<n id="46"/>
			<n id="49"/>
			<n id="52"/>
			<n id="228"/>
			<n id="229"/>
			<n id="230"/>
			<n id="261"/>
			<n id="262"/>
			<n id="263"/>
			<n id="330"/>
			<n id="331"/>
			<n id="332"/>
			<n id="357"/>
			<n id="358"/>
			<n id="359"/>
<!-- ... 12 like lines cut -->
		</NodeSet>
		<NodeSet name="FixedDisplacement2">
			<n id="31"/>
			<n id="32"/>
			<n id="33"/>
			<n id="40"/>
			<n id="41"/>
			<n id="48"/>
			<n id="49"/>
			<n id="50"/>
			<n id="282"/>
			<n id="283"/>
			<n id="284"/>
			<n id="309"/>
			<n id="310"/>
			<n id="311"/>
			<n id="378"/>
			<n id="379"/>
			<n id="380"/>
			<n id="396"/>
			<n id="397"/>
			<n id="398"/>
<!-- ... 12 like lines cut -->
		</NodeSet>
		<NodeSet name="FixedDisplacement3">
			<n id="37"/>
			<n id="38"/>
			<n id="39"/>
			<n id="40"/>
			<n id="41"/>
			<n id="42"/>
			<n id="43"/>
			<n id="44"/>
			<n id="231"/>
			<n id="232"/>
			<n id="233"/>
			<n id="246"/>
			<n id="247"/>
			<n id="248"/>
			<n id="285"/>
			<n id="286"/>
			<n id="287"/>
			<n id="300"/>
			<n id="301"/>
			<n id="302"/>
<!-- ... 12 like lines cut -->
		</NodeSet>
		<Surface name="PressureLoad1">
			<quad4 id="1">33,294,942,282</quad4>
			<quad4 id="2">282,942,945,283</quad4>
			<quad4 id="3">283,945,948,284</quad4>
			<quad4 id="4">284,948,302,41</quad4>
			<quad4 id="5">294,295,943,942</quad4>
			<quad4 id="6">942,943,946,945</quad4>
			<quad4 id="7">945,946,949,948</quad4>
			<quad4 id="8">948,949,301,302</quad4>
			<quad4 id="9">295,296,944,943</quad4>
			<quad4 id="10">943,944,947,946</quad4>
			<quad4 id="11">946,947,950,949</quad4>
			<quad4 id="12">949,950,300,301</quad4>
			<quad4 id="13">296,36,297,944</quad4>
			<quad4 id="14">944,297,298,947</quad4>
			<quad4 id="15">947,298,299,950</quad4>
			<quad4 id="16">950,299,44,300</quad4>
			<quad4 id="17">36,327,1032,297</quad4>
			<quad4 id="18">297,1032,1035,298</quad4>
			<quad4 id="19">298,1035,1038,299</quad4>
			<quad4 id="20">299,1038,335,44</quad4>
<!-- ... 364 like lines cut -->
		</Surface>
	</Mesh>
	<MeshDomains>
		<SolidDomain name="Part2" mat="Material1"/>
	</MeshDomains>
	<Boundary>
		<bc name="FixedDisplacement1" type="fix" node_set="FixedDisplacement1">
			<dofs>x</dofs>
		</bc>
		<bc name="FixedDisplacement2" type="fix" node_set="FixedDisplacement2">
			<dofs>y</dofs>
		</bc>
		<bc name="FixedDisplacement3" type="fix" node_set="FixedDisplacement3">
			<dofs>z</dofs>
		</bc>
	</Boundary>
	<Loads>
		<surface_load name="PressureLoad1" type="pressure" surface="PressureLoad1">
			<pressure lc="1">1</pressure>
			<linear>0</linear>
			<symmetric_stiffness>1</symmetric_stiffness>
		</surface_load>
	</Loads>
	<LoadData>
		<load_controller id="1" type="loadcurve">
			<interpolate>SMOOTH</interpolate>
			<points>
				<point>0,0</point>
				<point>1,1</point>
			</points>
		</load_controller>
	</LoadData>
	<Output>
		<plotfile type="febio">
			<var type="displacement"/>
			<var type="relative volume"/>
			<var type="stress"/>
		</plotfile>
		<logfile>
			<surface_data data="volume" surface="PressureLoad1"/>
		</logfile>
	</Output>
</febio_spec>
