<?xml version="1.0" encoding="ISO-8859-1"?>
<febio_spec version="4.0">
	<Module type="solid"/>
	<Control>
		<analysis>STATIC</analysis>
		<time_steps>1</time_steps>
		<step_size>1</step_size>
		<plot_zero_state>0</plot_zero_state>
		<plot_range>0,-1</plot_range>
		<plot_level>PLOT_MAJOR_ITRS</plot_level>
		<output_level>OUTPUT_MAJOR_ITRS</output_level>
		<plot_stride>1</plot_stride>
		<adaptor_re_solve>1</adaptor_re_solve>
		<solver type="solid">
			<symmetric_stiffness>symmetric</symmetric_stiffness>
			<equation_scheme>staggered</equation_scheme>
			<equation_order>default</equation_order>
			<optimize_bw>0</optimize_bw>
			<lstol>0.9</lstol>
			<lsmin>0.01</lsmin>
			<lsiter>5</lsiter>
			<max_refs>15</max_refs>
			<check_zero_diagonal>0</check_zero_diagonal>
			<zero_diagonal_tol>0</zero_diagonal_tol>
			<force_partition>0</force_partition>
			<reform_each_time_step>1</reform_each_time_step>
			<reform_augment>0</reform_augment>
			<diverge_reform>1</diverge_reform>
			<min_residual>1e-20</min_residual>
			<max_residual>0</max_residual>
			<dtol>0.001</dtol>
			<etol>0.01</etol>
			<rtol>0</rtol>
			<rhoi>-2</rhoi>
			<alpha>1</alpha>
			<beta>0.25</beta>
			<gamma>0.5</gamma>
			<logSolve>0</logSolve>
			<arc_length>0</arc_length>
			<arc_length_scale>0</arc_length_scale>
			<qn_method type="BFGS">
				<max_ups>10</max_ups>
				<max_buffer_size>0</max_buffer_size>
				<cycle_buffer>1</cycle_buffer>
				<cmax>100000</cmax>
			</qn_method>
		</solver>
	</Control>
	<Globals>
		<Constants>
			<T>0</T>
			<R>0</R>
			<Fc>0</Fc>
		</Constants>
	</Globals>
	<Material>
		<material id="1" name="Material1" type="prestrain elastic">
			<density>1</density>
			<elastic type="coupled trans-iso Mooney-Rivlin">
				<density>1</density>
				<c1>4.36</c1>
				<c2>0</c2>
				<c3>2.4</c3>
				<c4>30.6</c4>
				<c5>323</c5>
				<lam_max>1.055</lam_max>
				<k>100</k>
				<fiber type="local">
					<local>1,2</local>
				</fiber>
			</elastic>
			<prestrain type="prestrain gradient">
				<ramp>1</ramp>
				<F0 type="map">F0_map</F0>
			</prestrain>
		</material>
	</Material>
	<Mesh>
		<Nodes name="test9_ps">
			<node id="1">-0.5,-0.5,0</node>
			<node id="2">-0.5,-0.5,0.2</node>
			<node id="3">-0.5,-0.5,0.4</node>
			<node id="4">-0.5,-0.5,0.6</node>
			<node id="5">-0.5,-0.5,0.8</node>
			<node id="6">-0.5,-0.5,1</node>
			<node id="7">-0.5,-0.3,0</node>
			<node id="8">-0.5,-0.3,0.2</node>
			<node id="9">-0.5,-0.3,0.4</node>
			<node id="10">-0.5,-0.3,0.6</node>
			<node id="11">-0.5,-0.3,0.8</node>
			<node id="12">-0.5,-0.3,1</node>
			<node id="13">-0.5,-0.1,0</node>
			<node id="14">-0.5,-0.1,0.2</node>
			<node id="15">-0.5,-0.1,0.4</node>
			<node id="16">-0.5,-0.1,0.6</node>
			<node id="17">-0.5,-0.1,0.8</node>
			<node id="18">-0.5,-0.1,1</node>
			<node id="19">-0.5,0.1,0</node>
			<node id="20">-0.5,0.1,0.2</node>
<!-- ... 196 like lines cut -->
		</Nodes>
		<Elements type="hex8" name="Part1">
			<elem id="1">1,37,43,7,2,38,44,8</elem>
			<elem id="2">2,38,44,8,3,39,45,9</elem>
			<elem id="3">3,39,45,9,4,40,46,10</elem>
			<elem id="4">4,40,46,10,5,41,47,11</elem>
			<elem id="5">5,41,47,11,6,42,48,12</elem>
			<elem id="6">7,43,49,13,8,44,50,14</elem>
			<elem id="7">8,44,50,14,9,45,51,15</elem>
			<elem id="8">9,45,51,15,10,46,52,16</elem>
			<elem id="9">10,46,52,16,11,47,53,17</elem>
			<elem id="10">11,47,53,17,12,48,54,18</elem>
			<elem id="11">13,49,55,19,14,50,56,20</elem>
			<elem id="12">14,50,56,20,15,51,57,21</elem>
			<elem id="13">15,51,57,21,16,52,58,22</elem>
			<elem id="14">16,52,58,22,17,53,59,23</elem>
			<elem id="15">17,53,59,23,18,54,60,24</elem>
			<elem id="16">19,55,61,25,20,56,62,26</elem>
			<elem id="17">20,56,62,26,21,57,63,27</elem>
			<elem id="18">21,57,63,27,22,58,64,28</elem>
			<elem id="19">22,58,64,28,23,59,65,29</elem>
			<elem id="20">23,59,65,29,24,60,66,30</elem>
<!-- ... 105 like lines cut -->
		</Elements>
		<NodeSet name="FixedDisplacement01">
			1, 2, 3, 4, 5, 6, 7, 8,
			9, 10, 11, 12, 13, 14, 15, 16,
			17, 18, 19, 20, 21, 22, 23, 24,
			25, 26, 27, 28, 29, 30, 31, 32,
			33, 34, 35, 36
		</NodeSet>
		<NodeSet name="FixedDisplacement02">
			181, 182, 183, 184, 185, 186, 187, 188,
			189, 190, 191, 192, 193, 194, 195, 196,
			197, 198, 199, 200, 201, 202, 203, 204,
			205, 206, 207, 208, 209, 210, 211, 212,
			213, 214, 215, 216
		</NodeSet>
		<NodeSet name="PrescribedBC01">
			181, 182, 183, 184, 185, 186, 187, 188,
			189, 190, 191, 192, 193, 194, 195, 196,
			197, 198, 199, 200, 201, 202, 203, 204,
			205, 206, 207, 208, 209, 210, 211, 212,
			213, 214, 215, 216
		</NodeSet>
	</Mesh>
	<MeshDomains>
		<SolidDomain name="Part1" mat="Material1"/>
	</MeshDomains>
	<MeshData>
		<ElementData name="F0_map" elem_set="Part1" data_type="mat3">
			<e lid="1">1.04067,-0.000651485,-0.000651485,0.0542267,0.983246,0.00321706,0.0542267,0.00321706,0.983246</e>
			<e lid="2">1.03972,-0.00041242,-0.000300378,0.0630071,0.980724,0.00556343,0.0244616,0.00101116,0.986989</e>
			<e lid="3">1.03942,-0.000387507,-5.20417e-18,0.0685706,0.979612,6.93889e-18,1.70003e-16,-7.63278e-17,0.988549</e>
			<e lid="4">1.03972,-0.00041242,0.000300378,0.0630071,0.980724,-0.00556343,-0.0244616,-0.00101116,0.986989</e>
			<e lid="5">1.04067,-0.000651485,0.000651485,0.0542267,0.983246,-0.00321706,-0.0542267,-0.00321706,0.983246</e>
			<e lid="6">1.03972,-0.000300378,-0.00041242,0.0244616,0.986989,0.00101116,0.0630071,0.00556343,0.980724</e>
			<e lid="7">1.03884,-0.000467553,-0.000467553,0.0284048,0.984674,0.00293206,0.0284048,0.00293206,0.984674</e>
			<e lid="8">1.03837,-0.00065964,1.05818e-16,0.0313369,0.983154,4.64039e-17,6.93889e-17,8.32667e-17,0.986921</e>
			<e lid="9">1.03884,-0.000467553,0.000467553,0.0284048,0.984674,-0.00293206,-0.0284048,-0.00293206,0.984674</e>
			<e lid="10">1.03972,-0.000300378,0.00041242,0.0244616,0.986989,-0.00101116,-0.0630071,-0.00556343,0.980724</e>
			<e lid="11">1.03942,-4.16334e-17,-0.000387507,-5.72459e-17,0.988549,7.069e-17,0.0685706,-1.26635e-16,0.979612</e>
			<e lid="12">1.03837,6.93889e-17,-0.00065964,-1.47451e-17,0.986921,6.02816e-17,0.0313369,1.73472e-17,0.983154</e>
			<e lid="13">1.03771,8.67362e-17,5.0307e-17,7.89299e-17,0.985509,3.25261e-17,-1.38778e-17,-6.245e-17,0.985509</e>
			<e lid="14">1.03837,4.85723e-17,0.00065964,7.1991e-17,0.986921,-3.46945e-18,-0.0313369,-6.93889e-17,0.983154</e>
			<e lid="15">1.03942,1.56125e-16,0.000387507,4.42354e-17,0.988549,-1.99493e-17,-0.0685706,4.23273e-16,0.979612</e>
			<e lid="16">1.03972,0.000300378,-0.00041242,-0.0244616,0.986989,-0.00101116,0.0630071,-0.00556343,0.980724</e>
			<e lid="17">1.03884,0.000467553,-0.000467553,-0.0284048,0.984674,-0.00293206,0.0284048,-0.00293206,0.984674</e>
			<e lid="18">1.03837,0.00065964,-1.09288e-16,-0.0313369,0.983154,-1.96024e-16,2.63678e-16,2.01228e-16,0.986921</e>
			<e lid="19">1.03884,0.000467553,0.000467553,-0.0284048,0.984674,0.00293206,-0.0284048,0.00293206,0.984674</e>
			<e lid="20">1.03972,0.000300378,0.00041242,-0.0244616,0.986989,0.00101116,-0.0630071,0.00556343,0.980724</e>
<!-- ... 105 like lines cut -->
		</ElementData>
	</MeshData>
	<Boundary>
		<bc name="FixedDisplacement01" node_set="FixedDisplacement01" type="zero displacement">
			<x_dof>1</x_dof>
			<y_dof>1</y_dof>
			<z_dof>1</z_dof>
		</bc>
		<bc name="FixedDisplacement02" node_set="FixedDisplacement02" type="zero displacement">
			<x_dof>0</x_dof>
			<y_dof>1</y_dof>
			<z_dof>1</z_dof>
		</bc>
		<bc name="PrescribedBC01" node_set="PrescribedBC01" type="prescribed displacement">
			<dof>x</dof>
			<value>0</value>
			<relative>0</relative>
		</bc>
	</Boundary>
	<Output>
		<plotfile type="febio">
			<var type="displacement"/>
			<var type="stress"/>
		</plotfile>
	</Output>
</febio_spec>
