<?xml version="1.0" encoding="ISO-8859-1"?>
<!--
Problem Description:
	Two rigid plates have a rigid joint at their center.  Each plate has a 5 element block
	of neo-Hookean material attached by rigid contact to the top of the plate.  The free
	end block on the left is constrained in x,yz.  The free end of the block on the right
	has a prescribed x-displacement of 1 unit at time t=1.
Main Features:
	Rigid Joints
Secondary Features:
	
Materials:
	Neo-Hookean
	Rigid Bodies
Degrees of Freedom: 108
Results:
	Steps Completed: 10
	Equilibrium Iterations: 53
	Right Hand Evaluations: 77
	Siffness Reformations: 10
	Other:
		The top edges of the plates have a z-displacement of 0.150 at time t=1.
Comments:
	
-->
<febio_spec version="2.0">
	<Module type="solid"/>
	<Control>
		<title>Plates with Rigid Joint</title>
		<time_steps>10</time_steps>
		<step_size>0.1</step_size>
		<max_refs>15</max_refs>
		<max_ups>10</max_ups>
		<dtol>0.001</dtol>
		<etol>0.01</etol>
		<rtol>0</rtol>
		<lstol>0.9</lstol>
		<time_stepper>
			<dtmin>0.01</dtmin>
			<dtmax>0.1</dtmax>
			<max_retries>15</max_retries>
			<opt_iter>10</opt_iter>
		</time_stepper>
		<analysis type="static"/>
	</Control>
	<Globals>
		<Constants>
			<T>0</T>
			<R>0</R>
			<Fc>0</Fc>
		</Constants>
	</Globals>
	<Material>
		<material id="1" name="deformable" type="neo-Hookean">
			<density>1</density>
			<E>1</E>
			<v>0</v>
		</material>
		<material id="2" name="rigid 1" type="rigid body">
			<density>1</density>
		</material>
		<material id="3" name="rigid2" type="rigid body">
			<density>1</density>
		</material>
	</Material>
	<Geometry>
		<Nodes>
			<node id="1">-5.0000000e-001,-1.0000000e-001, 0.0000000e+000</node>
			<node id="2">-5.0000000e-001,-1.0000000e-001, 1.0000000e+000</node>
			<node id="3">-5.0000000e-001, 1.0000000e-001, 0.0000000e+000</node>
			<node id="4">-5.0000000e-001, 1.0000000e-001, 1.0000000e+000</node>
			<node id="5"> 5.0000000e-001,-1.0000000e-001, 0.0000000e+000</node>
			<node id="6"> 5.0000000e-001,-1.0000000e-001, 1.0000000e+000</node>
			<node id="7"> 5.0000000e-001, 1.0000000e-001, 0.0000000e+000</node>
			<node id="8"> 5.0000000e-001, 1.0000000e-001, 1.0000000e+000</node>
			<node id="9">-5.0000000e-001, 1.0000000e-001, 0.0000000e+000</node>
			<node id="10">-5.0000000e-001, 1.0000000e-001, 1.0000000e+000</node>
			<node id="11">-5.0000000e-001, 3.0000001e-001, 0.0000000e+000</node>
			<node id="12">-5.0000000e-001, 3.0000001e-001, 1.0000000e+000</node>
			<node id="13"> 5.0000000e-001, 1.0000000e-001, 0.0000000e+000</node>
			<node id="14"> 5.0000000e-001, 1.0000000e-001, 1.0000000e+000</node>
			<node id="15"> 5.0000000e-001, 3.0000001e-001, 0.0000000e+000</node>
			<node id="16"> 5.0000000e-001, 3.0000001e-001, 1.0000000e+000</node>
			<node id="17"> 5.0000000e-001, 1.0000000e-001, 8.0000001e-001</node>
			<node id="18"> 5.0000000e-001, 1.0000000e-001, 1.0000000e+000</node>
			<node id="19"> 5.0000000e-001, 3.0000001e-001, 8.0000001e-001</node>
			<node id="20"> 5.0000000e-001, 3.0000001e-001, 1.0000000e+000</node>
<!-- ... 44 like lines cut -->
		</Nodes>
		<Elements type="hex8" mat="1" elset="Part25">
			<elem id="1">    17,    21,    23,    19,    18,    22,    24,    20</elem>
			<elem id="2">    21,    25,    27,    23,    22,    26,    28,    24</elem>
			<elem id="3">    25,    29,    31,    27,    26,    30,    32,    28</elem>
			<elem id="4">    29,    33,    35,    31,    30,    34,    36,    32</elem>
			<elem id="5">    33,    37,    39,    35,    34,    38,    40,    36</elem>
			<elem id="6">    41,    45,    47,    43,    42,    46,    48,    44</elem>
			<elem id="7">    45,    49,    51,    47,    46,    50,    52,    48</elem>
			<elem id="8">    49,    53,    55,    51,    50,    54,    56,    52</elem>
			<elem id="9">    53,    57,    59,    55,    54,    58,    60,    56</elem>
			<elem id="10">    57,    61,    63,    59,    58,    62,    64,    60</elem>
		</Elements>
		<Elements type="hex8" mat="2" elset="Part26">
			<elem id="11">     1,     5,     7,     3,     2,     6,     8,     4</elem>
		</Elements>
		<Elements type="hex8" mat="3" elset="Part27">
			<elem id="12">     9,    13,    15,    11,    10,    14,    16,    12</elem>
		</Elements>
	</Geometry>
	<Boundary>
		<fix bc="z">
			<node id="37"/>
			<node id="38"/>
			<node id="39"/>
			<node id="40"/>
			<node id="41"/>
			<node id="42"/>
			<node id="43"/>
			<node id="44"/>
		</fix>
		<fix bc="y">
			<node id="41"/>
			<node id="42"/>
			<node id="43"/>
			<node id="44"/>
		</fix>
		<fix bc="x">
			<node id="41"/>
			<node id="42"/>
			<node id="43"/>
			<node id="44"/>
		</fix>
		<prescribe bc="x" lc="1">
			<node id="37">1</node>
			<node id="38">1</node>
			<node id="39">1</node>
			<node id="40">1</node>
		</prescribe>
	</Boundary>
	<Contact>
		<contact type="rigid">
			<node id="17" rb="3"></node>
			<node id="18" rb="3"></node>
			<node id="19" rb="3"></node>
			<node id="20" rb="3"></node>
		</contact>
		<contact type="rigid">
			<node id="61" rb="2"></node>
			<node id="62" rb="2"></node>
			<node id="63" rb="2"></node>
			<node id="64" rb="2"></node>
		</contact>
	</Contact>
	<Constraints>
		<rigid_body mat="2">
			<fixed bc="y"/>
			<fixed bc="z"/>
			<fixed bc="Rx"/>
			<fixed bc="Rz"/>
		</rigid_body>
		<rigid_body mat="3">
			<fixed bc="y"/>
			<fixed bc="z"/>
			<fixed bc="Rx"/>
			<fixed bc="Rz"/>
		</rigid_body>
		<constraint type="rigid joint">
			<tolerance>0.01</tolerance>
			<penalty>1000</penalty>
			<body_a>2</body_a>
			<body_b>3</body_b>
			<joint>0,0.1,0.5</joint>
		</constraint>
	</Constraints>
	<LoadData>
		<loadcurve id="1" type="linear">
			<loadpoint>0,0</loadpoint>
			<loadpoint>1,1</loadpoint>
		</loadcurve>
	</LoadData>
	<Output>
		<plotfile type="febio"></plotfile>
		<logfile>
			<element_data data="sx">6</element_data>
		</logfile>
	</Output>
</febio_spec>
