<?xml version="1.0" encoding="ISO-8859-1"?>
<!--
Problem Description:
	Knee Model.  The femur and patella are free to rotate about the y-axis.  The former
	has a prescribed rotatioon of 1.57 radians at time t=1.  Ligaments are attached
	between the femur and the tibia; the front one going over the patella.
Main Features:
	Rigid Bodies
Secondary Features:
	Prescribed rotation
Materials:
	Mooney-Rivlin
	Rigid Bodies
Degrees of Freedom: 662
Results:
	Steps Completed: 8
	Equilibrium Iterations: 81
	Right Hand Evaluations: 90
	Siffness Reformations: 12
	Other:
		The top of the patella has a z-displacement of 0.526 at time t=1.
Comments:
	
-->
<febio_spec version="2.0">
	<Module type="solid"/>
	<Control>
		<title>Knee Model</title>
		<time_steps>10</time_steps>
		<step_size>0.1</step_size>
		<max_refs>15</max_refs>
		<max_ups>10</max_ups>
		<dtol>0.001</dtol>
		<etol>0.01</etol>
		<rtol>1e+010</rtol>
		<lstol>0.9</lstol>
		<time_stepper>
			<dtmin>0.0333333</dtmin>
			<dtmax>0.3</dtmax>
			<max_retries>5</max_retries>
			<opt_iter>11</opt_iter>
		</time_stepper>
		<analysis type="static"/>
	</Control>
	<Globals>
		<Constants>
			<T>0</T>
			<R>0</R>
			<Fc>0</Fc>
		</Constants>
	</Globals>
	<Material>
		<material id="1" name="Ligament (Mooney-Rivlin)" type="Mooney-Rivlin">
			<density>1</density>
			<c1>1000</c1>
			<c2>0</c2>
			<k>19333.3</k>
		</material>
		<material id="2" name="Femur (Rigid Body)" type="rigid body">
			<density>1</density>
			<center_of_mass>0,0,0</center_of_mass>
		</material>
		<material id="3" name="Tibia (Rigid Body)" type="rigid body">
			<density>1</density>
		</material>
		<material id="4" name="Patella (Rigid Body)" type="rigid body">
			<density>1</density>
			<center_of_mass>0,0,0</center_of_mass>
		</material>
	</Material>
	<Geometry>
		<Nodes>
			<node id="1">-1.0500000e+000,-2.0000000e-001,-3.0000001e-001</node>
			<node id="2">-1.0500000e+000,-2.0000000e-001,-1.6666667e-001</node>
			<node id="3">-1.0500000e+000,-2.0000000e-001,-3.3333343e-002</node>
			<node id="4">-1.0500000e+000,-2.0000000e-001, 9.9999994e-002</node>
			<node id="5">-1.0500000e+000,-6.6666670e-002,-3.0000001e-001</node>
			<node id="6">-1.0500000e+000,-6.6666670e-002,-1.6666667e-001</node>
			<node id="7">-1.0500000e+000,-6.6666670e-002,-3.3333343e-002</node>
			<node id="8">-1.0500000e+000,-6.6666670e-002, 9.9999994e-002</node>
			<node id="9">-1.0500000e+000, 6.6666670e-002,-3.0000001e-001</node>
			<node id="10">-1.0500000e+000, 6.6666670e-002,-1.6666667e-001</node>
			<node id="11">-1.0500000e+000, 6.6666670e-002,-3.3333343e-002</node>
			<node id="12">-1.0500000e+000, 6.6666670e-002, 9.9999994e-002</node>
			<node id="13">-1.0500000e+000, 2.0000000e-001,-3.0000001e-001</node>
			<node id="14">-1.0500000e+000, 2.0000000e-001,-1.6666667e-001</node>
			<node id="15">-1.0500000e+000, 2.0000000e-001,-3.3333343e-002</node>
			<node id="16">-1.0500000e+000, 2.0000000e-001, 9.9999994e-002</node>
			<node id="17">-9.4999999e-001,-2.0000000e-001,-3.0000001e-001</node>
			<node id="18">-9.4999999e-001,-2.0000000e-001,-1.6666667e-001</node>
			<node id="19">-9.4999999e-001,-2.0000000e-001,-3.3333343e-002</node>
			<node id="20">-9.4999999e-001,-2.0000000e-001, 9.9999994e-002</node>
<!-- ... 994 like lines cut -->
		</Nodes>
		<Elements type="hex8" mat="1" elset="Part32">
			<elem id="1">   454,   490,   491,   455,   795,   797,   798,   796</elem>
			<elem id="2">   490,   526,   527,   491,   797,   799,   800,   798</elem>
			<elem id="3">   795,   797,   798,   796,   801,   803,   804,   802</elem>
			<elem id="4">   797,   799,   800,   798,   803,   805,   806,   804</elem>
			<elem id="5">   454,   490,   797,   795,   807,   808,   811,   810</elem>
			<elem id="6">   490,   526,   799,   797,   808,   809,   812,   811</elem>
			<elem id="7">   795,   797,   803,   801,   810,   811,   814,   813</elem>
			<elem id="8">   797,   799,   805,   803,   811,   812,   815,   814</elem>
			<elem id="9">   807,   808,   811,   810,   816,   817,   820,   819</elem>
			<elem id="10">   808,   809,   812,   811,   817,   818,   821,   820</elem>
			<elem id="11">   810,   811,   814,   813,   819,   820,   823,   822</elem>
			<elem id="12">   811,   812,   815,   814,   820,   821,   824,   823</elem>
			<elem id="13">   816,   817,   820,   819,   825,   826,   829,   828</elem>
			<elem id="14">   817,   818,   821,   820,   826,   827,   830,   829</elem>
			<elem id="15">   819,   820,   823,   822,   828,   829,   832,   831</elem>
			<elem id="16">   820,   821,   824,   823,   829,   830,   833,   832</elem>
			<elem id="17">   825,   826,   829,   828,   834,   835,   838,   837</elem>
			<elem id="18">   826,   827,   830,   829,   835,   836,   839,   838</elem>
			<elem id="19">   828,   829,   832,   831,   837,   838,   841,   840</elem>
			<elem id="20">   829,   830,   833,   832,   838,   839,   842,   841</elem>
<!-- ... 85 like lines cut -->
		</Elements>
		<Elements type="hex8" mat="2" elset="Part33">
			<elem id="106">   417,   453,   459,   423,   418,   454,   460,   424</elem>
			<elem id="107">   418,   454,   460,   424,   419,   455,   461,   425</elem>
			<elem id="108">   419,   455,   461,   425,   420,   456,   462,   426</elem>
			<elem id="109">   420,   456,   462,   426,   421,   457,   463,   427</elem>
			<elem id="110">   421,   457,   463,   427,   422,   458,   464,   428</elem>
			<elem id="111">   423,   459,   465,   429,   424,   460,   466,   430</elem>
			<elem id="112">   424,   460,   466,   430,   425,   461,   467,   431</elem>
			<elem id="113">   425,   461,   467,   431,   426,   462,   468,   432</elem>
			<elem id="114">   426,   462,   468,   432,   427,   463,   469,   433</elem>
			<elem id="115">   427,   463,   469,   433,   428,   464,   470,   434</elem>
			<elem id="116">   429,   465,   471,   435,   430,   466,   472,   436</elem>
			<elem id="117">   430,   466,   472,   436,   431,   467,   473,   437</elem>
			<elem id="118">   431,   467,   473,   437,   432,   468,   474,   438</elem>
			<elem id="119">   432,   468,   474,   438,   433,   469,   475,   439</elem>
			<elem id="120">   433,   469,   475,   439,   434,   470,   476,   440</elem>
			<elem id="121">   435,   471,   477,   441,   436,   472,   478,   442</elem>
			<elem id="122">   436,   472,   478,   442,   437,   473,   479,   443</elem>
			<elem id="123">   437,   473,   479,   443,   438,   474,   480,   444</elem>
			<elem id="124">   438,   474,   480,   444,   439,   475,   481,   445</elem>
			<elem id="125">   439,   475,   481,   445,   440,   476,   482,   446</elem>
<!-- ... 215 like lines cut -->
		</Elements>
		<Elements type="hex8" mat="3" elset="Part34">
			<elem id="341">    33,    69,    75,    39,    34,    70,    76,    40</elem>
			<elem id="342">    34,    70,    76,    40,    35,    71,    77,    41</elem>
			<elem id="343">    35,    71,    77,    41,    36,    72,    78,    42</elem>
			<elem id="344">    36,    72,    78,    42,    37,    73,    79,    43</elem>
			<elem id="345">    37,    73,    79,    43,    38,    74,    80,    44</elem>
			<elem id="346">    39,    75,    81,    45,    40,    76,    82,    46</elem>
			<elem id="347">    40,    76,    82,    46,    41,    77,    83,    47</elem>
			<elem id="348">    41,    77,    83,    47,    42,    78,    84,    48</elem>
			<elem id="349">    42,    78,    84,    48,    43,    79,    85,    49</elem>
			<elem id="350">    43,    79,    85,    49,    44,    80,    86,    50</elem>
			<elem id="351">    45,    81,    87,    51,    46,    82,    88,    52</elem>
			<elem id="352">    46,    82,    88,    52,    47,    83,    89,    53</elem>
			<elem id="353">    47,    83,    89,    53,    48,    84,    90,    54</elem>
			<elem id="354">    48,    84,    90,    54,    49,    85,    91,    55</elem>
			<elem id="355">    49,    85,    91,    55,    50,    86,    92,    56</elem>
			<elem id="356">    51,    87,    93,    57,    52,    88,    94,    58</elem>
			<elem id="357">    52,    88,    94,    58,    53,    89,    95,    59</elem>
			<elem id="358">    53,    89,    95,    59,    54,    90,    96,    60</elem>
			<elem id="359">    54,    90,    96,    60,    55,    91,    97,    61</elem>
			<elem id="360">    55,    91,    97,    61,    56,    92,    98,    62</elem>
<!-- ... 205 like lines cut -->
		</Elements>
		<Elements type="hex8" mat="4" elset="Part35">
			<elem id="566">     1,    17,    21,     5,     2,    18,    22,     6</elem>
			<elem id="567">     2,    18,    22,     6,     3,    19,    23,     7</elem>
			<elem id="568">     3,    19,    23,     7,     4,    20,    24,     8</elem>
			<elem id="569">     5,    21,    25,     9,     6,    22,    26,    10</elem>
			<elem id="570">     6,    22,    26,    10,     7,    23,    27,    11</elem>
			<elem id="571">     7,    23,    27,    11,     8,    24,    28,    12</elem>
			<elem id="572">     9,    25,    29,    13,    10,    26,    30,    14</elem>
			<elem id="573">    10,    26,    30,    14,    11,    27,    31,    15</elem>
			<elem id="574">    11,    27,    31,    15,    12,    28,    32,    16</elem>
		</Elements>
	</Geometry>
	<Constraints>
		<rigid_body mat="2">
			<fixed bc="x"/>
			<fixed bc="y"/>
			<fixed bc="z"/>
			<fixed bc="Rx"/>
			<fixed bc="Rz"/>
		</rigid_body>
		<rigid_body mat="2">
			<prescribed bc="Ry" lc="1">1</prescribed>
		</rigid_body>
		<rigid_body mat="3">
			<fixed bc="x"/>
			<fixed bc="y"/>
			<fixed bc="z"/>
			<fixed bc="Rx"/>
			<fixed bc="Ry"/>
			<fixed bc="Rz"/>
		</rigid_body>
		<rigid_body mat="4">
			<fixed bc="x"/>
			<fixed bc="y"/>
			<fixed bc="z"/>
			<fixed bc="Rx"/>
			<fixed bc="Rz"/>
		</rigid_body>
	</Constraints>
	<LoadData>
		<loadcurve id="1" type="linear">
			<loadpoint>0,0</loadpoint>
			<loadpoint>1,1.57</loadpoint>
		</loadcurve>
	</LoadData>
	<Output>
		<plotfile type="febio"></plotfile>
		<logfile>
			<element_data data="Ez">92</element_data>
		</logfile>
	</Output>
</febio_spec>
