<?xml version="1.0" encoding="ISO-8859-1"?>
<!--
A universal joint formed from a combination of three links and two revolute joints in a dynamic analysis.
-->
<febio_spec version="4.0">
	<Module type="solid"/>
	<Control>
		<analysis>DYNAMIC</analysis>
		<time_steps>36</time_steps>
		<step_size>1</step_size>
		<plot_zero_state>0</plot_zero_state>
		<plot_range>0,-1</plot_range>
		<plot_level>PLOT_MAJOR_ITRS</plot_level>
		<output_level>OUTPUT_MAJOR_ITRS</output_level>
		<plot_stride>1</plot_stride>
		<adaptor_re_solve>1</adaptor_re_solve>
		<time_stepper type="default">
			<max_retries>5</max_retries>
			<opt_iter>10</opt_iter>
			<dtmin>0.01</dtmin>
			<dtmax>1</dtmax>
			<aggressiveness>0</aggressiveness>
			<cutback>0.5</cutback>
			<dtforce>0</dtforce>
		</time_stepper>
		<solver type="solid">
			<symmetric_stiffness>non-symmetric</symmetric_stiffness>
			<equation_scheme>staggered</equation_scheme>
			<equation_order>default</equation_order>
			<optimize_bw>0</optimize_bw>
			<lstol>0.9</lstol>
			<lsmin>0.01</lsmin>
			<lsiter>5</lsiter>
			<max_refs>15</max_refs>
			<check_zero_diagonal>0</check_zero_diagonal>
			<zero_diagonal_tol>0</zero_diagonal_tol>
			<force_partition>0</force_partition>
			<reform_each_time_step>1</reform_each_time_step>
			<reform_augment>0</reform_augment>
			<diverge_reform>1</diverge_reform>
			<min_residual>1e-20</min_residual>
			<max_residual>0</max_residual>
			<dtol>0.001</dtol>
			<etol>0.01</etol>
			<rtol>0</rtol>
			<rhoi>0.5</rhoi>
			<alpha>1</alpha>
			<beta>0.25</beta>
			<gamma>0.5</gamma>
			<logSolve>0</logSolve>
			<arc_length>0</arc_length>
			<arc_length_scale>0</arc_length_scale>
			<qn_method type="BFGS">
				<max_ups>0</max_ups>
				<max_buffer_size>0</max_buffer_size>
				<cycle_buffer>1</cycle_buffer>
				<cmax>100000</cmax>
			</qn_method>
		</solver>
	</Control>
	<Globals>
		<Constants>
			<T>0</T>
			<R>0</R>
			<Fc>0</Fc>
		</Constants>
	</Globals>
	<Material>
		<material id="1" name="Ground" type="rigid body">
			<density>1e-09</density>
			<E>1</E>
			<v>0</v>
			<center_of_mass>0,0,0</center_of_mass>
		</material>
		<material id="2" name="Centered Shaft" type="rigid body">
			<density>1e-09</density>
			<E>1</E>
			<v>0</v>
		</material>
		<material id="3" name="Crucible" type="rigid body">
			<density>1e-09</density>
			<E>1</E>
			<v>0</v>
		</material>
		<material id="4" name="Rotated Shaft" type="rigid body">
			<density>1e-09</density>
			<E>1</E>
			<v>0</v>
		</material>
	</Material>
	<Mesh>
		<Nodes name="Object01">
			<node id="1">-0.35355339,-0.35355339,-11</node>
			<node id="2">0,-0.35355339,-11</node>
			<node id="3">0.35355339,-0.35355339,-11</node>
			<node id="4">-0.35355339,0,-11</node>
			<node id="5">0,0,-11</node>
			<node id="6">0.35355339,0,-11</node>
			<node id="7">-0.35355339,0.35355339,-11</node>
			<node id="8">0,0.35355339,-11</node>
			<node id="9">0.35355339,0.35355339,-11</node>
			<node id="10">-0.35355339,-0.35355339,-1</node>
			<node id="11">0,-0.35355339,-1</node>
			<node id="12">0.35355339,-0.35355339,-1</node>
			<node id="13">-0.35355339,0,-1</node>
			<node id="14">0,0,-1</node>
			<node id="15">0.35355339,0,-1</node>
			<node id="16">-0.35355339,0.35355339,-1</node>
			<node id="17">0,0.35355339,-1</node>
			<node id="18">0.35355339,0.35355339,-1</node>
			<node id="19">-0.70710679,-0.70710677,-11</node>
			<node id="20">0,-1,-11</node>
<!-- ... 884 like lines cut -->
		</Nodes>
		<Elements type="hex8" name="Part1">
			<elem id="1">1,35,161,55,10,40,164,56</elem>
			<elem id="2">35,36,162,161,40,39,165,164</elem>
			<elem id="3">36,37,163,162,39,38,166,165</elem>
			<elem id="4">37,2,41,163,38,11,46,166</elem>
			<elem id="5">55,161,158,54,56,164,167,57</elem>
			<elem id="6">161,162,159,158,164,165,168,167</elem>
			<elem id="7">162,163,160,159,165,166,169,168</elem>
			<elem id="8">163,41,42,160,166,46,45,169</elem>
			<elem id="9">54,158,155,53,57,167,170,58</elem>
			<elem id="10">158,159,156,155,167,168,171,170</elem>
			<elem id="11">159,160,157,156,168,169,172,171</elem>
			<elem id="12">160,42,43,157,169,45,44,172</elem>
			<elem id="13">53,155,49,4,58,170,50,13</elem>
			<elem id="14">155,156,48,49,170,171,51,50</elem>
			<elem id="15">156,157,47,48,171,172,52,51</elem>
			<elem id="16">157,43,5,47,172,44,14,52</elem>
			<elem id="17">2,59,179,41,11,64,182,46</elem>
			<elem id="18">59,60,180,179,64,63,183,182</elem>
			<elem id="19">60,61,181,180,63,62,184,183</elem>
			<elem id="20">61,3,65,181,62,12,70,184</elem>
<!-- ... 76 like lines cut -->
		</Elements>
		<Elements type="hex8" name="Part2">
			<elem id="97">227,261,387,281,236,266,390,282</elem>
			<elem id="98">261,262,388,387,266,265,391,390</elem>
			<elem id="99">262,263,389,388,265,264,392,391</elem>
			<elem id="100">263,228,267,389,264,237,272,392</elem>
			<elem id="101">281,387,384,280,282,390,393,283</elem>
			<elem id="102">387,388,385,384,390,391,394,393</elem>
			<elem id="103">388,389,386,385,391,392,395,394</elem>
			<elem id="104">389,267,268,386,392,272,271,395</elem>
			<elem id="105">280,384,381,279,283,393,396,284</elem>
			<elem id="106">384,385,382,381,393,394,397,396</elem>
			<elem id="107">385,386,383,382,394,395,398,397</elem>
			<elem id="108">386,268,269,383,395,271,270,398</elem>
			<elem id="109">279,381,275,230,284,396,276,239</elem>
			<elem id="110">381,382,274,275,396,397,277,276</elem>
			<elem id="111">382,383,273,274,397,398,278,277</elem>
			<elem id="112">383,269,231,273,398,270,240,278</elem>
			<elem id="113">228,285,405,267,237,290,408,272</elem>
			<elem id="114">285,286,406,405,290,289,409,408</elem>
			<elem id="115">286,287,407,406,289,288,410,409</elem>
			<elem id="116">287,229,291,407,288,238,296,410</elem>
<!-- ... 76 like lines cut -->
		</Elements>
		<Elements type="hex8" name="Part3">
			<elem id="193">453,487,613,507,462,492,616,508</elem>
			<elem id="194">487,488,614,613,492,491,617,616</elem>
			<elem id="195">488,489,615,614,491,490,618,617</elem>
			<elem id="196">489,454,493,615,490,463,498,618</elem>
			<elem id="197">507,613,610,506,508,616,619,509</elem>
			<elem id="198">613,614,611,610,616,617,620,619</elem>
			<elem id="199">614,615,612,611,617,618,621,620</elem>
			<elem id="200">615,493,494,612,618,498,497,621</elem>
			<elem id="201">506,610,607,505,509,619,622,510</elem>
			<elem id="202">610,611,608,607,619,620,623,622</elem>
			<elem id="203">611,612,609,608,620,621,624,623</elem>
			<elem id="204">612,494,495,609,621,497,496,624</elem>
			<elem id="205">505,607,501,456,510,622,502,465</elem>
			<elem id="206">607,608,500,501,622,623,503,502</elem>
			<elem id="207">608,609,499,500,623,624,504,503</elem>
			<elem id="208">609,495,457,499,624,496,466,504</elem>
			<elem id="209">454,511,631,493,463,516,634,498</elem>
			<elem id="210">511,512,632,631,516,515,635,634</elem>
			<elem id="211">512,513,633,632,515,514,636,635</elem>
			<elem id="212">513,455,517,633,514,464,522,636</elem>
<!-- ... 76 like lines cut -->
		</Elements>
		<Elements type="hex8" name="Part5">
			<elem id="289">679,713,839,733,688,718,842,734</elem>
			<elem id="290">713,714,840,839,718,717,843,842</elem>
			<elem id="291">714,715,841,840,717,716,844,843</elem>
			<elem id="292">715,680,719,841,716,689,724,844</elem>
			<elem id="293">733,839,836,732,734,842,845,735</elem>
			<elem id="294">839,840,837,836,842,843,846,845</elem>
			<elem id="295">840,841,838,837,843,844,847,846</elem>
			<elem id="296">841,719,720,838,844,724,723,847</elem>
			<elem id="297">732,836,833,731,735,845,848,736</elem>
			<elem id="298">836,837,834,833,845,846,849,848</elem>
			<elem id="299">837,838,835,834,846,847,850,849</elem>
			<elem id="300">838,720,721,835,847,723,722,850</elem>
			<elem id="301">731,833,727,682,736,848,728,691</elem>
			<elem id="302">833,834,726,727,848,849,729,728</elem>
			<elem id="303">834,835,725,726,849,850,730,729</elem>
			<elem id="304">835,721,683,725,850,722,692,730</elem>
			<elem id="305">680,737,857,719,689,742,860,724</elem>
			<elem id="306">737,738,858,857,742,741,861,860</elem>
			<elem id="307">738,739,859,858,741,740,862,861</elem>
			<elem id="308">739,681,743,859,740,690,748,862</elem>
<!-- ... 76 like lines cut -->
		</Elements>
	</Mesh>
	<MeshDomains>
		<SolidDomain name="Part1" mat="Centered Shaft"/>
		<SolidDomain name="Part2" mat="Crucible"/>
		<SolidDomain name="Part3" mat="Crucible"/>
		<SolidDomain name="Part5" mat="Rotated Shaft"/>
	</MeshDomains>
	<Rigid>
		<rigid_bc name="RigidFixed112" type="rigid_fixed">
			<rb>Ground</rb>
			<Rx_dof>1</Rx_dof>
			<Ry_dof>1</Ry_dof>
			<Rz_dof>1</Rz_dof>
			<Ru_dof>1</Ru_dof>
			<Rv_dof>1</Rv_dof>
			<Rw_dof>1</Rw_dof>
		</rigid_bc>
		<rigid_connector name="Joint01 Ground - Centered Shaft revolute" type="rigid revolute joint">
			<body_a>Ground</body_a>
			<body_b>Centered Shaft</body_b>
			<laugon>1</laugon>
			<tolerance>0</tolerance>
			<gaptol>0</gaptol>
			<angtol>0</angtol>
			<force_penalty>1000</force_penalty>
			<moment_penalty>1000</moment_penalty>
			<force_damping>0</force_damping>
			<moment_damping>0</moment_damping>
			<joint_origin>0,0,-11</joint_origin>
			<rotation_axis>0,0,1</rotation_axis>
			<transverse_axis>1,0,0</transverse_axis>
			<minaug>0</minaug>
			<maxaug>10</maxaug>
			<prescribed_rotation>1</prescribed_rotation>
			<rotation lc="1">1</rotation>
			<moment>0</moment>
			<auto_penalty>0</auto_penalty>
		</rigid_connector>
		<rigid_connector name="Joint02 Ground - Rotated Shaft" type="rigid revolute joint">
			<body_a>Ground</body_a>
			<body_b>Rotated Shaft</body_b>
			<laugon>1</laugon>
			<tolerance>0</tolerance>
			<gaptol>0</gaptol>
			<angtol>0</angtol>
			<force_penalty>1000</force_penalty>
			<moment_penalty>1000</moment_penalty>
			<force_damping>0</force_damping>
			<moment_damping>0</moment_damping>
			<joint_origin>0,5.5,9.52628</joint_origin>
			<rotation_axis>0,0.5,0.866025404</rotation_axis>
			<transverse_axis>1,0,0</transverse_axis>
			<minaug>0</minaug>
			<maxaug>10</maxaug>
			<prescribed_rotation>0</prescribed_rotation>
			<rotation>0</rotation>
			<moment>0</moment>
			<auto_penalty>0</auto_penalty>
		</rigid_connector>
		<rigid_connector name="Joint03 Centered Shaft - Crucible revolute" type="rigid revolute joint">
			<body_a>Centered Shaft</body_a>
			<body_b>Crucible</body_b>
			<laugon>1</laugon>
			<tolerance>0</tolerance>
			<gaptol>0</gaptol>
			<angtol>0</angtol>
			<force_penalty>1000</force_penalty>
			<moment_penalty>1000</moment_penalty>
			<force_damping>0</force_damping>
			<moment_damping>0</moment_damping>
			<joint_origin>0,0,0</joint_origin>
			<rotation_axis>1,0,0</rotation_axis>
			<transverse_axis>0,0,1</transverse_axis>
			<minaug>0</minaug>
			<maxaug>10</maxaug>
			<prescribed_rotation>0</prescribed_rotation>
			<rotation>0</rotation>
			<moment>0</moment>
			<auto_penalty>0</auto_penalty>
		</rigid_connector>
		<rigid_connector name="Joint04 Rotated Shaft - Crucible revolute" type="rigid revolute joint">
			<body_a>Rotated Shaft</body_a>
			<body_b>Crucible</body_b>
			<laugon>1</laugon>
			<tolerance>0</tolerance>
			<gaptol>0</gaptol>
			<angtol>0</angtol>
			<force_penalty>1000</force_penalty>
			<moment_penalty>1000</moment_penalty>
			<force_damping>0</force_damping>
			<moment_damping>0</moment_damping>
			<joint_origin>0,0,0</joint_origin>
			<rotation_axis>0,1,-0.5</rotation_axis>
			<transverse_axis>1,0,0</transverse_axis>
			<minaug>0</minaug>
			<maxaug>10</maxaug>
			<prescribed_rotation>0</prescribed_rotation>
			<rotation>0</rotation>
			<moment>0</moment>
			<auto_penalty>0</auto_penalty>
		</rigid_connector>
	</Rigid>
	<LoadData>
		<load_controller id="1" name="LC1" type="loadcurve">
			<interpolate>SMOOTH</interpolate>
			<extend>REPEAT</extend>
			<points>
				<pt>0,0</pt>
				<pt>36,6.283185307</pt>
			</points>
		</load_controller>
	</LoadData>
	<Output>
		<plotfile type="febio">
			<var type="acceleration"/>
			<var type="displacement"/>
			<var type="reaction forces"/>
			<var type="rigid acceleration"/>
			<var type="rigid angular acceleration"/>
			<var type="rigid angular position"/>
			<var type="rigid angular velocity"/>
			<var type="rigid kinetic energy"/>
			<var type="rigid position"/>
			<var type="rigid torque"/>
			<var type="rigid velocity"/>
			<var type="stress"/>
			<var type="velocity"/>
		</plotfile>
	</Output>
</febio_spec>
