<?xml version="1.0" encoding="ISO-8859-1"?>
<febio_spec version="2.5">
	<Module type="solid"/>
	<Control>
		<time_steps>36</time_steps>
		<step_size>1</step_size>
		<max_refs>15</max_refs>
		<max_ups>0</max_ups>
		<diverge_reform>1</diverge_reform>
		<reform_each_time_step>1</reform_each_time_step>
		<dtol>0.001</dtol>
		<etol>0.01</etol>
		<rtol>0</rtol>
		<lstol>0.9</lstol>
		<min_residual>1e-020</min_residual>
		<qnmethod>0</qnmethod>
		<time_stepper>
			<dtmin>0.01</dtmin>
			<dtmax>1</dtmax>
			<max_retries>5</max_retries>
			<opt_iter>10</opt_iter>
		</time_stepper>
		<analysis type="dynamic"/>
		<rhoi>0.5</rhoi>
		<symmetric_stiffness>0</symmetric_stiffness>
	</Control>
	<Globals>
		<Constants>
			<T>0</T>
			<R>0</R>
			<Fc>0</Fc>
		</Constants>
	</Globals>
	<Material>
		<material id="1" name="Ground" type="rigid body">
			<density>1e-009</density>
			<center_of_mass>0,0,0</center_of_mass>
		</material>
		<material id="2" name="Centered Shaft" type="rigid body">
			<density>1e-009</density>
		</material>
		<material id="3" name="Crucible" type="rigid body">
			<density>1e-009</density>
		</material>
		<material id="4" name="Rotated Shaft" type="rigid body">
			<density>1e-009</density>
		</material>
	</Material>
	<Geometry>
		<Nodes name="rj13">
			<node id="1">-3.5355339e-001,-3.5355339e-001,-1.1000000e+001</node>
			<node id="2"> 0.0000000e+000,-3.5355339e-001,-1.1000000e+001</node>
			<node id="3"> 3.5355339e-001,-3.5355339e-001,-1.1000000e+001</node>
			<node id="4">-3.5355339e-001, 0.0000000e+000,-1.1000000e+001</node>
			<node id="5"> 0.0000000e+000, 0.0000000e+000,-1.1000000e+001</node>
			<node id="6"> 3.5355339e-001, 0.0000000e+000,-1.1000000e+001</node>
			<node id="7">-3.5355339e-001, 3.5355339e-001,-1.1000000e+001</node>
			<node id="8"> 0.0000000e+000, 3.5355339e-001,-1.1000000e+001</node>
			<node id="9"> 3.5355339e-001, 3.5355339e-001,-1.1000000e+001</node>
			<node id="10">-3.5355339e-001,-3.5355339e-001,-1.0000000e+000</node>
			<node id="11"> 0.0000000e+000,-3.5355339e-001,-1.0000000e+000</node>
			<node id="12"> 3.5355339e-001,-3.5355339e-001,-1.0000000e+000</node>
			<node id="13">-3.5355339e-001, 0.0000000e+000,-1.0000000e+000</node>
			<node id="14"> 0.0000000e+000, 0.0000000e+000,-1.0000000e+000</node>
			<node id="15"> 3.5355339e-001, 0.0000000e+000,-1.0000000e+000</node>
			<node id="16">-3.5355339e-001, 3.5355339e-001,-1.0000000e+000</node>
			<node id="17"> 0.0000000e+000, 3.5355339e-001,-1.0000000e+000</node>
			<node id="18"> 3.5355339e-001, 3.5355339e-001,-1.0000000e+000</node>
			<node id="19">-7.0710679e-001,-7.0710677e-001,-1.1000000e+001</node>
			<node id="20"> 0.0000000e+000,-1.0000000e+000,-1.1000000e+001</node>
<!-- ... 884 like lines cut -->
		</Nodes>
		<Elements type="hex8" mat="2" name="Part1">
			<elem id="1">     1,    35,   161,    55,    10,    40,   164,    56</elem>
			<elem id="2">    35,    36,   162,   161,    40,    39,   165,   164</elem>
			<elem id="3">    36,    37,   163,   162,    39,    38,   166,   165</elem>
			<elem id="4">    37,     2,    41,   163,    38,    11,    46,   166</elem>
			<elem id="5">    55,   161,   158,    54,    56,   164,   167,    57</elem>
			<elem id="6">   161,   162,   159,   158,   164,   165,   168,   167</elem>
			<elem id="7">   162,   163,   160,   159,   165,   166,   169,   168</elem>
			<elem id="8">   163,    41,    42,   160,   166,    46,    45,   169</elem>
			<elem id="9">    54,   158,   155,    53,    57,   167,   170,    58</elem>
			<elem id="10">   158,   159,   156,   155,   167,   168,   171,   170</elem>
			<elem id="11">   159,   160,   157,   156,   168,   169,   172,   171</elem>
			<elem id="12">   160,    42,    43,   157,   169,    45,    44,   172</elem>
			<elem id="13">    53,   155,    49,     4,    58,   170,    50,    13</elem>
			<elem id="14">   155,   156,    48,    49,   170,   171,    51,    50</elem>
			<elem id="15">   156,   157,    47,    48,   171,   172,    52,    51</elem>
			<elem id="16">   157,    43,     5,    47,   172,    44,    14,    52</elem>
			<elem id="17">     2,    59,   179,    41,    11,    64,   182,    46</elem>
			<elem id="18">    59,    60,   180,   179,    64,    63,   183,   182</elem>
			<elem id="19">    60,    61,   181,   180,    63,    62,   184,   183</elem>
			<elem id="20">    61,     3,    65,   181,    62,    12,    70,   184</elem>
<!-- ... 76 like lines cut -->
		</Elements>
		<Elements type="hex8" mat="3" name="Part2">
			<elem id="97">   227,   261,   387,   281,   236,   266,   390,   282</elem>
			<elem id="98">   261,   262,   388,   387,   266,   265,   391,   390</elem>
			<elem id="99">   262,   263,   389,   388,   265,   264,   392,   391</elem>
			<elem id="100">   263,   228,   267,   389,   264,   237,   272,   392</elem>
			<elem id="101">   281,   387,   384,   280,   282,   390,   393,   283</elem>
			<elem id="102">   387,   388,   385,   384,   390,   391,   394,   393</elem>
			<elem id="103">   388,   389,   386,   385,   391,   392,   395,   394</elem>
			<elem id="104">   389,   267,   268,   386,   392,   272,   271,   395</elem>
			<elem id="105">   280,   384,   381,   279,   283,   393,   396,   284</elem>
			<elem id="106">   384,   385,   382,   381,   393,   394,   397,   396</elem>
			<elem id="107">   385,   386,   383,   382,   394,   395,   398,   397</elem>
			<elem id="108">   386,   268,   269,   383,   395,   271,   270,   398</elem>
			<elem id="109">   279,   381,   275,   230,   284,   396,   276,   239</elem>
			<elem id="110">   381,   382,   274,   275,   396,   397,   277,   276</elem>
			<elem id="111">   382,   383,   273,   274,   397,   398,   278,   277</elem>
			<elem id="112">   383,   269,   231,   273,   398,   270,   240,   278</elem>
			<elem id="113">   228,   285,   405,   267,   237,   290,   408,   272</elem>
			<elem id="114">   285,   286,   406,   405,   290,   289,   409,   408</elem>
			<elem id="115">   286,   287,   407,   406,   289,   288,   410,   409</elem>
			<elem id="116">   287,   229,   291,   407,   288,   238,   296,   410</elem>
<!-- ... 76 like lines cut -->
		</Elements>
		<Elements type="hex8" mat="3" name="Part3">
			<elem id="193">   453,   487,   613,   507,   462,   492,   616,   508</elem>
			<elem id="194">   487,   488,   614,   613,   492,   491,   617,   616</elem>
			<elem id="195">   488,   489,   615,   614,   491,   490,   618,   617</elem>
			<elem id="196">   489,   454,   493,   615,   490,   463,   498,   618</elem>
			<elem id="197">   507,   613,   610,   506,   508,   616,   619,   509</elem>
			<elem id="198">   613,   614,   611,   610,   616,   617,   620,   619</elem>
			<elem id="199">   614,   615,   612,   611,   617,   618,   621,   620</elem>
			<elem id="200">   615,   493,   494,   612,   618,   498,   497,   621</elem>
			<elem id="201">   506,   610,   607,   505,   509,   619,   622,   510</elem>
			<elem id="202">   610,   611,   608,   607,   619,   620,   623,   622</elem>
			<elem id="203">   611,   612,   609,   608,   620,   621,   624,   623</elem>
			<elem id="204">   612,   494,   495,   609,   621,   497,   496,   624</elem>
			<elem id="205">   505,   607,   501,   456,   510,   622,   502,   465</elem>
			<elem id="206">   607,   608,   500,   501,   622,   623,   503,   502</elem>
			<elem id="207">   608,   609,   499,   500,   623,   624,   504,   503</elem>
			<elem id="208">   609,   495,   457,   499,   624,   496,   466,   504</elem>
			<elem id="209">   454,   511,   631,   493,   463,   516,   634,   498</elem>
			<elem id="210">   511,   512,   632,   631,   516,   515,   635,   634</elem>
			<elem id="211">   512,   513,   633,   632,   515,   514,   636,   635</elem>
			<elem id="212">   513,   455,   517,   633,   514,   464,   522,   636</elem>
<!-- ... 76 like lines cut -->
		</Elements>
		<Elements type="hex8" mat="4" name="Part5">
			<elem id="289">   679,   713,   839,   733,   688,   718,   842,   734</elem>
			<elem id="290">   713,   714,   840,   839,   718,   717,   843,   842</elem>
			<elem id="291">   714,   715,   841,   840,   717,   716,   844,   843</elem>
			<elem id="292">   715,   680,   719,   841,   716,   689,   724,   844</elem>
			<elem id="293">   733,   839,   836,   732,   734,   842,   845,   735</elem>
			<elem id="294">   839,   840,   837,   836,   842,   843,   846,   845</elem>
			<elem id="295">   840,   841,   838,   837,   843,   844,   847,   846</elem>
			<elem id="296">   841,   719,   720,   838,   844,   724,   723,   847</elem>
			<elem id="297">   732,   836,   833,   731,   735,   845,   848,   736</elem>
			<elem id="298">   836,   837,   834,   833,   845,   846,   849,   848</elem>
			<elem id="299">   837,   838,   835,   834,   846,   847,   850,   849</elem>
			<elem id="300">   838,   720,   721,   835,   847,   723,   722,   850</elem>
			<elem id="301">   731,   833,   727,   682,   736,   848,   728,   691</elem>
			<elem id="302">   833,   834,   726,   727,   848,   849,   729,   728</elem>
			<elem id="303">   834,   835,   725,   726,   849,   850,   730,   729</elem>
			<elem id="304">   835,   721,   683,   725,   850,   722,   692,   730</elem>
			<elem id="305">   680,   737,   857,   719,   689,   742,   860,   724</elem>
			<elem id="306">   737,   738,   858,   857,   742,   741,   861,   860</elem>
			<elem id="307">   738,   739,   859,   858,   741,   740,   862,   861</elem>
			<elem id="308">   739,   681,   743,   859,   740,   690,   748,   862</elem>
<!-- ... 76 like lines cut -->
		</Elements>
	</Geometry>
	<Boundary>
		<rigid_body mat="1">
			<fixed bc="x"/>
			<fixed bc="y"/>
			<fixed bc="z"/>
			<fixed bc="Rx"/>
			<fixed bc="Ry"/>
			<fixed bc="Rz"/>
		</rigid_body>
	</Boundary>
	<Constraints>
		<constraint type="rigid revolute joint" name="Joint01 Ground - Centered Shaft revolute">
			<body_a>1</body_a>
			<body_b>2</body_b>
			<tolerance>0</tolerance>
			<gaptol>0</gaptol>
			<angtol>0</angtol>
			<force_penalty>1e+03</force_penalty>
			<moment_penalty>1e+03</moment_penalty>
			<joint_origin>0,0,-11</joint_origin>
			<rotation_axis>0,0,1</rotation_axis>
			<transverse_axis>1,0,0</transverse_axis>
			<minaug>0</minaug>
			<maxaug>10</maxaug>
			<prescribed_rotation>1</prescribed_rotation>
			<rotation lc="1">1</rotation>
			<moment>0</moment>
		</constraint>
		<constraint type="rigid revolute joint" name="Joint02 Ground - Rotated Shaft">
			<body_a>1</body_a>
			<body_b>4</body_b>
			<tolerance>0</tolerance>
			<gaptol>0</gaptol>
			<angtol>0</angtol>
			<force_penalty>1e+03</force_penalty>
			<moment_penalty>1e+03</moment_penalty>
			<joint_origin>0,5.5,9.52628</joint_origin>
			<rotation_axis>0,0.5,0.866025404</rotation_axis>
			<transverse_axis>1,0,0</transverse_axis>
			<minaug>0</minaug>
			<maxaug>10</maxaug>
			<prescribed_rotation>0</prescribed_rotation>
			<rotation>0</rotation>
			<moment>0</moment>
		</constraint>
		<constraint type="rigid revolute joint" name="Joint03 Centered Shaft - Crucible revolute">
			<body_a>2</body_a>
			<body_b>3</body_b>
			<tolerance>0</tolerance>
			<gaptol>0</gaptol>
			<angtol>0</angtol>
			<force_penalty>1e+03</force_penalty>
			<moment_penalty>1e+03</moment_penalty>
			<joint_origin>0,0,0</joint_origin>
			<rotation_axis>1,0,0</rotation_axis>
			<transverse_axis>0,0,1</transverse_axis>
			<minaug>0</minaug>
			<maxaug>10</maxaug>
			<prescribed_rotation>0</prescribed_rotation>
			<rotation>0</rotation>
			<moment>0</moment>
		</constraint>
		<constraint type="rigid revolute joint" name="Joint04 Rotated Shaft - Crucible revolute">
			<body_a>4</body_a>
			<body_b>3</body_b>
			<tolerance>0</tolerance>
			<gaptol>0</gaptol>
			<angtol>0</angtol>
			<force_penalty>1e+03</force_penalty>
			<moment_penalty>1e+03</moment_penalty>
			<joint_origin>0,0,0</joint_origin>
			<rotation_axis>0,1,-0.5</rotation_axis>
			<transverse_axis>1,0,0</transverse_axis>
			<minaug>0</minaug>
			<maxaug>10</maxaug>
			<prescribed_rotation>0</prescribed_rotation>
			<rotation>0</rotation>
			<moment>0</moment>
		</constraint>
	</Constraints>
	<LoadData>
		<loadcurve id="1" type="smooth" extend="repeat">
			<point>0,0</point>
			<point>36,6.283185307</point>
		</loadcurve>
	</LoadData>
	<Output>
		<plotfile type="febio">
			<var type="acceleration"/>
			<var type="displacement"/>
			<var type="reaction forces"/>
			<var type="rigid acceleration"/>
			<var type="rigid angular acceleration"/>
			<var type="rigid angular position"/>
			<var type="rigid angular velocity"/>
			<var type="rigid kinetic energy"/>
			<var type="rigid position"/>
			<var type="rigid torque"/>
			<var type="rigid velocity"/>
			<var type="stress"/>
			<var type="velocity"/>
		</plotfile>
		<logfile>
			<rigid_body_data data="Fy"/>
		</logfile>
	</Output>
</febio_spec>
