<?xml version="1.0" encoding="ISO-8859-1"?>
<!--
A 10x10 element shell plate is constrained in x,y,z on the edges with a zforce
of 0 units at time t=0 to 0.0005 units at time t=1 applied to the center node.
-->
<febio_spec version="4.0">
	<Module type="solid"/>
	<Control>
		<analysis>STATIC</analysis>
		<time_steps>10</time_steps>
		<step_size>0.1</step_size>
		<plot_zero_state>0</plot_zero_state>
		<plot_range>0,-1</plot_range>
		<plot_level>PLOT_MAJOR_ITRS</plot_level>
		<output_level>OUTPUT_MAJOR_ITRS</output_level>
		<plot_stride>1</plot_stride>
		<adaptor_re_solve>1</adaptor_re_solve>
		<time_stepper type="default">
			<max_retries>5</max_retries>
			<opt_iter>10</opt_iter>
			<dtmin>0.01</dtmin>
			<dtmax>0.1</dtmax>
			<aggressiveness>0</aggressiveness>
			<cutback>0.5</cutback>
			<dtforce>0</dtforce>
		</time_stepper>
		<solver type="solid">
			<symmetric_stiffness>symmetric</symmetric_stiffness>
			<equation_scheme>staggered</equation_scheme>
			<equation_order>default</equation_order>
			<optimize_bw>0</optimize_bw>
			<lstol>0.9</lstol>
			<lsmin>0.01</lsmin>
			<lsiter>5</lsiter>
			<max_refs>15</max_refs>
			<check_zero_diagonal>0</check_zero_diagonal>
			<zero_diagonal_tol>0</zero_diagonal_tol>
			<force_partition>0</force_partition>
			<reform_each_time_step>1</reform_each_time_step>
			<reform_augment>0</reform_augment>
			<diverge_reform>1</diverge_reform>
			<min_residual>1e-20</min_residual>
			<max_residual>0</max_residual>
			<dtol>0.001</dtol>
			<etol>0.01</etol>
			<rtol>0</rtol>
			<rhoi>-2</rhoi>
			<alpha>1</alpha>
			<beta>0.25</beta>
			<gamma>0.5</gamma>
			<logSolve>0</logSolve>
			<arc_length>0</arc_length>
			<arc_length_scale>0</arc_length_scale>
			<qn_method type="BFGS">
				<max_ups>10</max_ups>
				<max_buffer_size>0</max_buffer_size>
				<cycle_buffer>1</cycle_buffer>
				<cmax>100000</cmax>
			</qn_method>
		</solver>
	</Control>
	<Globals>
		<Constants>
			<T>0</T>
			<R>0</R>
			<Fc>0</Fc>
		</Constants>
	</Globals>
	<Material>
		<material id="1" name="Material 3" type="neo-Hookean">
			<density>1</density>
			<E>1</E>
			<v>0</v>
		</material>
	</Material>
	<Mesh>
		<Nodes name="Object01">
			<node id="1">-0.5,-0.5,0</node>
			<node id="2">-0.5,-0.4,0</node>
			<node id="3">-0.5,-0.3,0</node>
			<node id="4">-0.5,-0.2,0</node>
			<node id="5">-0.5,-0.1,0</node>
			<node id="6">-0.5,0,0</node>
			<node id="7">-0.5,0.1,0</node>
			<node id="8">-0.5,0.2,0</node>
			<node id="9">-0.5,0.3,0</node>
			<node id="10">-0.5,0.4,0</node>
			<node id="11">-0.5,0.5,0</node>
			<node id="12">-0.4,-0.5,0</node>
			<node id="13">-0.4,-0.4,0</node>
			<node id="14">-0.4,-0.3,0</node>
			<node id="15">-0.4,-0.2,0</node>
			<node id="16">-0.4,-0.1,0</node>
			<node id="17">-0.4,0,0</node>
			<node id="18">-0.4,0.1,0</node>
			<node id="19">-0.4,0.2,0</node>
			<node id="20">-0.4,0.3,0</node>
<!-- ... 101 like lines cut -->
		</Nodes>
		<Elements type="quad4" name="Part39">
			<elem id="1">1,12,13,2</elem>
			<elem id="2">2,13,14,3</elem>
			<elem id="3">3,14,15,4</elem>
			<elem id="4">4,15,16,5</elem>
			<elem id="5">5,16,17,6</elem>
			<elem id="6">6,17,18,7</elem>
			<elem id="7">7,18,19,8</elem>
			<elem id="8">8,19,20,9</elem>
			<elem id="9">9,20,21,10</elem>
			<elem id="10">10,21,22,11</elem>
			<elem id="11">12,23,24,13</elem>
			<elem id="12">13,24,25,14</elem>
			<elem id="13">14,25,26,15</elem>
			<elem id="14">15,26,27,16</elem>
			<elem id="15">16,27,28,17</elem>
			<elem id="16">17,28,29,18</elem>
			<elem id="17">18,29,30,19</elem>
			<elem id="18">19,30,31,20</elem>
			<elem id="19">20,31,32,21</elem>
			<elem id="20">21,32,33,22</elem>
<!-- ... 80 like lines cut -->
		</Elements>
		<NodeSet name="FixedShellDisplacement01">
			1, 2, 3, 4, 5, 6, 7, 8,
			9, 10, 11, 111, 112, 113, 114, 115,
			116, 117, 118, 119, 120, 121
		</NodeSet>
		<NodeSet name="FixedShellDisplacement02">
			1, 2, 3, 4, 5, 6, 7, 8,
			9, 10, 11, 111, 112, 113, 114, 115,
			116, 117, 118, 119, 120, 121
		</NodeSet>
		<NodeSet name="FixedShellDisplacement03">
			1, 2, 3, 4, 5, 6, 7, 8,
			9, 10, 11, 12, 22, 23, 33, 34,
			44, 45, 55, 56, 66, 67, 77, 78,
			88, 89, 99, 100, 110, 111, 112, 113,
			114, 115, 116, 117, 118, 119, 120, 121
		</NodeSet>
		<NodeSet name="FixedDisplacement01">
			1, 2, 3, 4, 5, 6, 7, 8,
			9, 10, 11, 12, 22, 23, 33, 34,
			44, 45, 55, 56, 66, 67, 77, 78,
			88, 89, 99, 100, 110, 111, 112, 113,
			114, 115, 116, 117, 118, 119, 120, 121
		</NodeSet>
		<NodeSet name="FixedDisplacement02">
			1, 2, 3, 4, 5, 6, 7, 8,
			9, 10, 11, 12, 22, 23, 33, 34,
			44, 45, 55, 56, 66, 67, 77, 78,
			88, 89, 99, 100, 110, 111, 112, 113,
			114, 115, 116, 117, 118, 119, 120, 121
		</NodeSet>
		<NodeSet name="FixedDisplacement03">
			1, 2, 3, 4, 5, 6, 7, 8,
			9, 10, 11, 12, 22, 23, 33, 34,
			44, 45, 55, 56, 66, 67, 77, 78,
			88, 89, 99, 100, 110, 111, 112, 113,
			114, 115, 116, 117, 118, 119, 120, 121
		</NodeSet>
		<NodeSet name="ForceNodeset01">
			61
		</NodeSet>
		<ElementSet name="unnamed_set01">
			55
		</ElementSet>
	</Mesh>
	<MeshDomains>
		<ShellDomain name="Part39" mat="Material 3">
			<shell_thickness>0</shell_thickness>
		</ShellDomain>
	</MeshDomains>
	<MeshData>
		<ElementData type="shell thickness" elem_set="Part39">
			<e lid="1">0.01,0.01,0.01,0.01</e>
			<e lid="2">0.01,0.01,0.01,0.01</e>
			<e lid="3">0.01,0.01,0.01,0.01</e>
			<e lid="4">0.01,0.01,0.01,0.01</e>
			<e lid="5">0.01,0.01,0.01,0.01</e>
			<e lid="6">0.01,0.01,0.01,0.01</e>
			<e lid="7">0.01,0.01,0.01,0.01</e>
			<e lid="8">0.01,0.01,0.01,0.01</e>
			<e lid="9">0.01,0.01,0.01,0.01</e>
			<e lid="10">0.01,0.01,0.01,0.01</e>
			<e lid="11">0.01,0.01,0.01,0.01</e>
			<e lid="12">0.01,0.01,0.01,0.01</e>
			<e lid="13">0.01,0.01,0.01,0.01</e>
			<e lid="14">0.01,0.01,0.01,0.01</e>
			<e lid="15">0.01,0.01,0.01,0.01</e>
			<e lid="16">0.01,0.01,0.01,0.01</e>
			<e lid="17">0.01,0.01,0.01,0.01</e>
			<e lid="18">0.01,0.01,0.01,0.01</e>
			<e lid="19">0.01,0.01,0.01,0.01</e>
			<e lid="20">0.01,0.01,0.01,0.01</e>
<!-- ... 80 like lines cut -->
		</ElementData>
	</MeshData>
	<Boundary>
		<bc name="FixedShellDisplacement01" node_set="FixedShellDisplacement01" type="zero shell displacement">
			<sx_dof>0</sx_dof>
			<sy_dof>0</sy_dof>
			<sz_dof>1</sz_dof>
		</bc>
		<bc name="FixedShellDisplacement02" node_set="FixedShellDisplacement02" type="zero shell displacement">
			<sx_dof>0</sx_dof>
			<sy_dof>1</sy_dof>
			<sz_dof>0</sz_dof>
		</bc>
		<bc name="FixedShellDisplacement03" node_set="FixedShellDisplacement03" type="zero shell displacement">
			<sx_dof>1</sx_dof>
			<sy_dof>0</sy_dof>
			<sz_dof>0</sz_dof>
		</bc>
		<bc name="FixedDisplacement01" node_set="FixedDisplacement01" type="zero displacement">
			<x_dof>0</x_dof>
			<y_dof>0</y_dof>
			<z_dof>1</z_dof>
		</bc>
		<bc name="FixedDisplacement02" node_set="FixedDisplacement02" type="zero displacement">
			<x_dof>0</x_dof>
			<y_dof>1</y_dof>
			<z_dof>0</z_dof>
		</bc>
		<bc name="FixedDisplacement03" node_set="FixedDisplacement03" type="zero displacement">
			<x_dof>1</x_dof>
			<y_dof>0</y_dof>
			<z_dof>0</z_dof>
		</bc>
	</Boundary>
	<Loads>
		<nodal_load name="ForceLoad01" node_set="ForceNodeset01" type="nodal_force">
			<relative>0</relative>
			<value lc="1">0,0,1</value>
			<shell_bottom>0</shell_bottom>
		</nodal_load>
	</Loads>
	<LoadData>
		<load_controller id="1" name="LC1" type="loadcurve">
			<interpolate>LINEAR</interpolate>
			<extend>CONSTANT</extend>
			<points>
				<pt>0,0</pt>
				<pt>1,0.0005</pt>
			</points>
		</load_controller>
	</LoadData>
	<Output>
		<plotfile type="febio">
			<var type="displacement"/>
			<var type="stress"/>
		</plotfile>
	</Output>
</febio_spec>
