<?xml version="1.0" encoding="ISO-8859-1"?>
<febio_spec version="2.5">
	<Module type="solid"/>
	<Control>
		<time_steps>10</time_steps>
		<step_size>0.1</step_size>
		<max_refs>15</max_refs>
		<max_ups>10</max_ups>
		<diverge_reform>1</diverge_reform>
		<reform_each_time_step>1</reform_each_time_step>
		<dtol>0.001</dtol>
		<etol>0.01</etol>
		<rtol>1e+010</rtol>
		<lstol>0.9</lstol>
		<min_residual>1e-020</min_residual>
		<qnmethod>0</qnmethod>
		<time_stepper>
			<dtmin>0.01</dtmin>
			<dtmax>0.1</dtmax>
			<max_retries>5</max_retries>
			<opt_iter>10</opt_iter>
		</time_stepper>
		<analysis type="static"/>
	</Control>
	<Globals>
		<Constants>
			<T>0</T>
			<R>0</R>
			<Fc>0</Fc>
		</Constants>
	</Globals>
	<Material>
		<material id="1" name="membrane" type="isotropic elastic">
			<density>1</density>
			<E>1.396e+006</E>
			<v>0.386</v>
		</material>
		<material id="2" name="needle" type="rigid body">
			<density>1</density>
		</material>
	</Material>
	<Geometry>
		<Nodes name="sh09">
			<node id="1">-2.5000000e-002, 0.0000000e+000, 0.0000000e+000</node>
			<node id="2"> 0.0000000e+000,-2.5000000e-002, 0.0000000e+000</node>
			<node id="3"> 0.0000000e+000, 0.0000000e+000, 0.0000000e+000</node>
			<node id="4"> 0.0000000e+000, 2.5000000e-002, 0.0000000e+000</node>
			<node id="5"> 2.5000000e-002, 0.0000000e+000, 0.0000000e+000</node>
			<node id="6">-2.4786110e-002,-3.2632404e-003, 0.0000000e+000</node>
			<node id="7">-2.4148096e-002,-6.4706610e-003, 0.0000000e+000</node>
			<node id="8">-2.3096868e-002,-9.5673760e-003, 0.0000000e+000</node>
			<node id="9">-2.1650484e-002,-1.2500263e-002, 0.0000000e+000</node>
			<node id="10">-1.9833670e-002,-1.5219249e-002, 0.0000000e+000</node>
			<node id="11">-1.7677504e-002,-1.7677836e-002, 0.0000000e+000</node>
			<node id="12">-1.5218878e-002,-1.9833955e-002, 0.0000000e+000</node>
			<node id="13">-1.2499856e-002,-2.1650718e-002, 0.0000000e+000</node>
			<node id="14">-9.5669660e-003,-2.3097038e-002, 0.0000000e+000</node>
			<node id="15">-6.4703890e-003,-2.4148169e-002, 0.0000000e+000</node>
			<node id="16">-3.2631080e-003,-2.4786128e-002, 0.0000000e+000</node>
			<node id="17">-2.4786110e-002, 3.2632404e-003, 0.0000000e+000</node>
			<node id="18">-2.4148096e-002, 6.4706610e-003, 0.0000000e+000</node>
			<node id="19">-2.3096868e-002, 9.5673760e-003, 0.0000000e+000</node>
			<node id="20">-2.1650484e-002, 1.2500263e-002, 0.0000000e+000</node>
<!-- ... 1045 like lines cut -->
		</Nodes>
		<Elements type="hex8" mat="2" name="Part1">
			<elem id="1">   680,   687,   688,   681,   873,   880,   881,   874</elem>
			<elem id="2">   681,   688,   689,   682,   874,   881,   882,   875</elem>
			<elem id="3">   682,   689,   690,   683,   875,   882,   883,   876</elem>
			<elem id="4">   683,   690,   691,   684,   876,   883,   884,   877</elem>
			<elem id="5">   684,   691,   692,   685,   877,   884,   885,   878</elem>
			<elem id="6">   685,   692,   693,   686,   878,   885,   886,   879</elem>
			<elem id="7">   687,   694,   695,   688,   880,   887,   888,   881</elem>
			<elem id="8">   688,   695,   696,   689,   881,   888,   889,   882</elem>
			<elem id="9">   689,   696,   697,   690,   882,   889,   890,   883</elem>
			<elem id="10">   690,   697,   698,   691,   883,   890,   891,   884</elem>
			<elem id="11">   691,   698,   699,   692,   884,   891,   892,   885</elem>
			<elem id="12">   692,   699,   700,   693,   885,   892,   893,   886</elem>
			<elem id="13">   694,   701,   702,   695,   887,   894,   895,   888</elem>
			<elem id="14">   695,   702,   703,   696,   888,   895,   896,   889</elem>
			<elem id="15">   696,   703,   704,   697,   889,   896,   897,   890</elem>
			<elem id="16">   697,   704,   705,   698,   890,   897,   898,   891</elem>
			<elem id="17">   698,   705,   706,   699,   891,   898,   899,   892</elem>
			<elem id="18">   699,   706,   707,   700,   892,   899,   900,   893</elem>
			<elem id="19">   701,   708,   709,   702,   894,   901,   902,   895</elem>
			<elem id="20">   702,   709,   710,   703,   895,   902,   903,   896</elem>
<!-- ... 160 like lines cut -->
		</Elements>
		<Elements type="tri3" mat="1" name="Part2">
			<elem id="181">     9,    10,   306</elem>
			<elem id="182">   306,    10,   372</elem>
			<elem id="183">    11,    12,   313</elem>
			<elem id="184">   131,    11,   313</elem>
			<elem id="185">    10,    11,   131</elem>
			<elem id="186">    10,   131,   372</elem>
			<elem id="187">   131,   178,   372</elem>
			<elem id="188">   131,   313,   317</elem>
			<elem id="189">   257,   131,   317</elem>
			<elem id="190">    87,   131,   257</elem>
			<elem id="191">    67,   257,   317</elem>
			<elem id="192">   317,   156,   386</elem>
			<elem id="193">   313,   156,   317</elem>
			<elem id="194">    12,   156,   313</elem>
			<elem id="195">   156,    12,   248</elem>
			<elem id="196">    12,    13,   248</elem>
			<elem id="197">   248,    13,   377</elem>
			<elem id="198">   253,   248,   377</elem>
			<elem id="199">   120,   253,   377</elem>
			<elem id="200">   120,   377,   382</elem>
<!-- ... 1288 like lines cut -->
		</Elements>
		<NodeSet name="FixedDisplacement01">
			<node id="1"/>
			<node id="2"/>
			<node id="4"/>
			<node id="5"/>
			<node id="6"/>
			<node id="7"/>
			<node id="8"/>
			<node id="9"/>
			<node id="10"/>
			<node id="11"/>
			<node id="12"/>
			<node id="13"/>
			<node id="14"/>
			<node id="15"/>
			<node id="16"/>
			<node id="17"/>
			<node id="18"/>
			<node id="19"/>
			<node id="20"/>
			<node id="21"/>
<!-- ... 28 like lines cut -->
		</NodeSet>
		<NodeSet name="RigidNodeset 1">
			<node id="3"/>
			<node id="564"/>
			<node id="570"/>
			<node id="585"/>
			<node id="589"/>
			<node id="597"/>
			<node id="613"/>
			<node id="624"/>
			<node id="625"/>
			<node id="631"/>
			<node id="633"/>
			<node id="634"/>
			<node id="635"/>
			<node id="637"/>
			<node id="643"/>
			<node id="644"/>
			<node id="645"/>
			<node id="648"/>
			<node id="652"/>
			<node id="654"/>
<!-- ... 23 like lines cut -->
		</NodeSet>
		<ElementSet name="unnamed_set01">
			<elem id="783"/>
		</ElementSet>
	</Geometry>
	<MeshData>
		<ElementData var="shell thickness" elem_set="Part2">
			<elem lid="1">0.0001,0.0001,0.0001</elem>
			<elem lid="2">0.0001,0.0001,0.0001</elem>
			<elem lid="3">0.0001,0.0001,0.0001</elem>
			<elem lid="4">0.0001,0.0001,0.0001</elem>
			<elem lid="5">0.0001,0.0001,0.0001</elem>
			<elem lid="6">0.0001,0.0001,0.0001</elem>
			<elem lid="7">0.0001,0.0001,0.0001</elem>
			<elem lid="8">0.0001,0.0001,0.0001</elem>
			<elem lid="9">0.0001,0.0001,0.0001</elem>
			<elem lid="10">0.0001,0.0001,0.0001</elem>
			<elem lid="11">0.0001,0.0001,0.0001</elem>
			<elem lid="12">0.0001,0.0001,0.0001</elem>
			<elem lid="13">0.0001,0.0001,0.0001</elem>
			<elem lid="14">0.0001,0.0001,0.0001</elem>
			<elem lid="15">0.0001,0.0001,0.0001</elem>
			<elem lid="16">0.0001,0.0001,0.0001</elem>
			<elem lid="17">0.0001,0.0001,0.0001</elem>
			<elem lid="18">0.0001,0.0001,0.0001</elem>
			<elem lid="19">0.0001,0.0001,0.0001</elem>
			<elem lid="20">0.0001,0.0001,0.0001</elem>
<!-- ... 1288 like lines cut -->
		</ElementData>
	</MeshData>
	<Boundary>
		<fix bc="x,y,z" node_set="FixedDisplacement01"/>
		<rigid name="RigidInterface02" rb="2" node_set="RigidNodeset 1"/>
		<rigid_body mat="2">
			<prescribed bc="z" lc="1">1</prescribed>
		</rigid_body>
		<rigid_body mat="2">
			<fixed bc="x"/>
			<fixed bc="y"/>
			<fixed bc="Rx"/>
			<fixed bc="Ry"/>
			<fixed bc="Rz"/>
		</rigid_body>
	</Boundary>
	<Contact>
	</Contact>
	<LoadData>
		<loadcurve id="1" type="linear">
			<point>0,0</point>
			<point>1,0.005</point>
		</loadcurve>
	</LoadData>
	<Output>
		<plotfile type="febio"/>
		<logfile>
			<element_data data="sy" elem_set="unnamed_set01"/>
		</logfile>
	</Output>
</febio_spec>
