<?xml version="1.0" encoding="ISO-8859-1"?>
<!--
Problem Description:
	Shell strip with continuous fiber distribution of 3D von-Mises distribution where distribution is 
	heavily along x direction.
	Left edge with rigid constaint is fixed and right edge with rigid constraint is 
	prescribed x displacement of 2 at t=1.
Main Features:
	q4ans shells
	von-Mises-3d with b=3
Secondary Features:
Materials:
	solid mixture (neo-Hookean,continuous fiber distribution)
Degrees of Freedom: 271
Results
	Steps Completed: 15
	Equilibrium Iterations: 45
	Right Hand Evaluations: 60
	Siffness Reformations: 45
	Other:
		The maximum effective stress is 141 units at time t=1.
Comments:
-->
<febio_spec version="2.5">
	<Module type="solid"/>
	<Control>
		<time_steps>100</time_steps>
		<step_size>0.01</step_size>
		<max_refs>15</max_refs>
		<max_ups>0</max_ups>
		<diverge_reform>1</diverge_reform>
		<reform_each_time_step>1</reform_each_time_step>
		<dtol>0.001</dtol>
		<etol>0.01</etol>
		<rtol>0</rtol>
		<lstol>0.9</lstol>
		<min_residual>1e-020</min_residual>
		<qnmethod>0</qnmethod>
		<time_stepper>
			<dtmin>0.001</dtmin>
			<dtmax>0.1</dtmax>
			<max_retries>5</max_retries>
			<opt_iter>10</opt_iter>
		</time_stepper>
		<analysis type="static"/>
	</Control>
	<Globals>
		<Constants>
			<T>293</T>
			<R>0.008314</R>
			<Fc>0.0965</Fc>
		</Constants>
	</Globals>
	<Material>
		<material id="1" name="mat1" type="solid mixture">
			<solid type="neo-Hookean">
				<density>1</density>
				<E>1</E>
				<v>0.3</v>
			</solid>
			<solid type="continuous fiber distribution">
				<mat_axis type="vector">
					<a>1,0,0</a>
					<d>0,1,0</d>
				</mat_axis>
				<fibers type="fiber-exponential-power-law">
					<alpha>20</alpha>
					<beta>2</beta>
					<ksi>5</ksi>
					<mu>0</mu>
				</fibers>
				<distribution type="von-Mises-3d">
					<b>3</b>
				</distribution>
				<scheme type="fibers-3d-gkt">
					<nph>11</nph>
					<nth>31</nth>
				</scheme>
			</solid>
		</material>
		<material id="2" name="mat2" type="rigid body">
			<density>1</density>
		</material>
		<material id="3" name="mat3" type="rigid body">
			<density>1</density>
		</material>
	</Material>
	<Geometry>
		<Nodes name="sh38">
			<node id="1">-5.0000000e+000,-1.5000000e+000, 0.0000000e+000</node>
			<node id="2">-5.0000000e+000,-7.5000000e-001, 0.0000000e+000</node>
			<node id="3">-5.0000000e+000, 0.0000000e+000, 0.0000000e+000</node>
			<node id="4">-5.0000000e+000, 7.5000000e-001, 0.0000000e+000</node>
			<node id="5">-5.0000000e+000, 1.5000000e+000, 0.0000000e+000</node>
			<node id="6">-4.0000000e+000,-1.5000000e+000, 0.0000000e+000</node>
			<node id="7">-4.0000000e+000,-7.5000000e-001, 0.0000000e+000</node>
			<node id="8">-4.0000000e+000, 0.0000000e+000, 0.0000000e+000</node>
			<node id="9">-4.0000000e+000, 7.5000000e-001, 0.0000000e+000</node>
			<node id="10">-4.0000000e+000, 1.5000000e+000, 0.0000000e+000</node>
			<node id="11">-3.0000000e+000,-1.5000000e+000, 0.0000000e+000</node>
			<node id="12">-3.0000000e+000,-7.5000000e-001, 0.0000000e+000</node>
			<node id="13">-3.0000000e+000, 0.0000000e+000, 0.0000000e+000</node>
			<node id="14">-3.0000000e+000, 7.5000000e-001, 0.0000000e+000</node>
			<node id="15">-3.0000000e+000, 1.5000000e+000, 0.0000000e+000</node>
			<node id="16">-2.0000000e+000,-1.5000000e+000, 0.0000000e+000</node>
			<node id="17">-2.0000000e+000,-7.5000000e-001, 0.0000000e+000</node>
			<node id="18">-2.0000000e+000, 0.0000000e+000, 0.0000000e+000</node>
			<node id="19">-2.0000000e+000, 7.5000000e-001, 0.0000000e+000</node>
			<node id="20">-2.0000000e+000, 1.5000000e+000, 0.0000000e+000</node>
<!-- ... 35 like lines cut -->
		</Nodes>
		<Elements type="q4ans" mat="1" name="Part1">
			<elem id="1">     1,     6,     7,     2</elem>
			<elem id="2">     2,     7,     8,     3</elem>
			<elem id="3">     3,     8,     9,     4</elem>
			<elem id="4">     4,     9,    10,     5</elem>
			<elem id="5">     6,    11,    12,     7</elem>
			<elem id="6">     7,    12,    13,     8</elem>
			<elem id="7">     8,    13,    14,     9</elem>
			<elem id="8">     9,    14,    15,    10</elem>
			<elem id="9">    11,    16,    17,    12</elem>
			<elem id="10">    12,    17,    18,    13</elem>
			<elem id="11">    13,    18,    19,    14</elem>
			<elem id="12">    14,    19,    20,    15</elem>
			<elem id="13">    16,    21,    22,    17</elem>
			<elem id="14">    17,    22,    23,    18</elem>
			<elem id="15">    18,    23,    24,    19</elem>
			<elem id="16">    19,    24,    25,    20</elem>
			<elem id="17">    21,    26,    27,    22</elem>
			<elem id="18">    22,    27,    28,    23</elem>
			<elem id="19">    23,    28,    29,    24</elem>
			<elem id="20">    24,    29,    30,    25</elem>
<!-- ... 20 like lines cut -->
		</Elements>
		<NodeSet name="RigidNodeset 1">
			<node id="1"/>
			<node id="2"/>
			<node id="3"/>
			<node id="4"/>
			<node id="5"/>
		</NodeSet>
		<NodeSet name="RigidNodeset 2">
			<node id="51"/>
			<node id="52"/>
			<node id="53"/>
			<node id="54"/>
			<node id="55"/>
		</NodeSet>
		<ElementSet name="unnamed_set01">
			<elem id="1"/>
		</ElementSet>
	</Geometry>
	<MeshData>
		<ElementData var="shell thickness" elem_set="Part1">
			<elem lid="1">0.01,0.01,0.01,0.01</elem>
			<elem lid="2">0.01,0.01,0.01,0.01</elem>
			<elem lid="3">0.01,0.01,0.01,0.01</elem>
			<elem lid="4">0.01,0.01,0.01,0.01</elem>
			<elem lid="5">0.01,0.01,0.01,0.01</elem>
			<elem lid="6">0.01,0.01,0.01,0.01</elem>
			<elem lid="7">0.01,0.01,0.01,0.01</elem>
			<elem lid="8">0.01,0.01,0.01,0.01</elem>
			<elem lid="9">0.01,0.01,0.01,0.01</elem>
			<elem lid="10">0.01,0.01,0.01,0.01</elem>
			<elem lid="11">0.01,0.01,0.01,0.01</elem>
			<elem lid="12">0.01,0.01,0.01,0.01</elem>
			<elem lid="13">0.01,0.01,0.01,0.01</elem>
			<elem lid="14">0.01,0.01,0.01,0.01</elem>
			<elem lid="15">0.01,0.01,0.01,0.01</elem>
			<elem lid="16">0.01,0.01,0.01,0.01</elem>
			<elem lid="17">0.01,0.01,0.01,0.01</elem>
			<elem lid="18">0.01,0.01,0.01,0.01</elem>
			<elem lid="19">0.01,0.01,0.01,0.01</elem>
			<elem lid="20">0.01,0.01,0.01,0.01</elem>
<!-- ... 20 like lines cut -->
		</ElementData>
	</MeshData>
	<Boundary>
		<rigid name="RigidInterface02" rb="2" node_set="RigidNodeset 1"/>
		<rigid name="RigidInterface03" rb="3" node_set="RigidNodeset 2"/>
		<rigid_body mat="2">
			<fixed bc="x"/>
			<fixed bc="y"/>
			<fixed bc="z"/>
			<fixed bc="Rx"/>
			<fixed bc="Ry"/>
			<fixed bc="Rz"/>
		</rigid_body>
		<rigid_body mat="3">
			<prescribed bc="x" lc="1">1</prescribed>
		</rigid_body>
		<rigid_body mat="3">
			<fixed bc="y"/>
			<fixed bc="z"/>
			<fixed bc="Rx"/>
			<fixed bc="Ry"/>
			<fixed bc="Rz"/>
		</rigid_body>
	</Boundary>
	<Contact>
	</Contact>
	<LoadData>
		<loadcurve id="1" type="smooth">
			<point>0,0</point>
			<point>1,2</point>
		</loadcurve>
	</LoadData>
	<Output>
		<plotfile type="febio">
			<var type="displacement"/>
			<var type="shell director"/>
			<var type="shell strain"/>
			<var type="stress"/>
		</plotfile>
		<logfile>
			<element_data data="sx" elem_set="unnamed_set01"/>
		</logfile>
	</Output>
</febio_spec>
