<?xml version="1.0" encoding="ISO-8859-1"?>
<!--
A 20x4 element shell sheet is constrained in x,y,z on the left end and attached
by rigid contact to a rigid body with a prescribed rotation of 1 radian in time t=1.

The shellrigid interface connects nodal positions and
directors, so that the shell edge rotates with the rigid
body
-->
<febio_spec version="4.0">
	<Module type="solid"/>
	<Control>
		<analysis>STATIC</analysis>
		<time_steps>10</time_steps>
		<step_size>0.1</step_size>
		<plot_zero_state>0</plot_zero_state>
		<plot_range>0,-1</plot_range>
		<plot_level>PLOT_MAJOR_ITRS</plot_level>
		<output_level>OUTPUT_MAJOR_ITRS</output_level>
		<plot_stride>1</plot_stride>
		<adaptor_re_solve>1</adaptor_re_solve>
		<time_stepper type="default">
			<max_retries>5</max_retries>
			<opt_iter>10</opt_iter>
			<dtmin>0.01</dtmin>
			<dtmax>0.1</dtmax>
			<aggressiveness>0</aggressiveness>
			<cutback>0.5</cutback>
			<dtforce>0</dtforce>
		</time_stepper>
		<solver type="solid">
			<symmetric_stiffness>symmetric</symmetric_stiffness>
			<equation_scheme>staggered</equation_scheme>
			<equation_order>default</equation_order>
			<optimize_bw>0</optimize_bw>
			<lstol>0.9</lstol>
			<lsmin>0.01</lsmin>
			<lsiter>5</lsiter>
			<max_refs>15</max_refs>
			<check_zero_diagonal>0</check_zero_diagonal>
			<zero_diagonal_tol>0</zero_diagonal_tol>
			<force_partition>0</force_partition>
			<reform_each_time_step>1</reform_each_time_step>
			<reform_augment>0</reform_augment>
			<diverge_reform>1</diverge_reform>
			<min_residual>1e-20</min_residual>
			<max_residual>0</max_residual>
			<dtol>0.001</dtol>
			<etol>0.01</etol>
			<rtol>0</rtol>
			<rhoi>-2</rhoi>
			<alpha>1</alpha>
			<beta>0.25</beta>
			<gamma>0.5</gamma>
			<logSolve>0</logSolve>
			<arc_length>0</arc_length>
			<arc_length_scale>0</arc_length_scale>
			<qn_method type="BFGS">
				<max_ups>0</max_ups>
				<max_buffer_size>0</max_buffer_size>
				<cycle_buffer>1</cycle_buffer>
				<cmax>100000</cmax>
			</qn_method>
		</solver>
	</Control>
	<Globals>
		<Constants>
			<T>0</T>
			<R>0</R>
			<Fc>0</Fc>
		</Constants>
	</Globals>
	<Material>
		<material id="1" name="Material 1" type="neo-Hookean">
			<density>1</density>
			<E>1</E>
			<v>0</v>
		</material>
		<material id="2" name="Material 2" type="rigid body">
			<density>1</density>
			<E>1</E>
			<v>0</v>
		</material>
	</Material>
	<Mesh>
		<Nodes name="Object01">
			<node id="1">-2.5,-0.5,0</node>
			<node id="2">-2.5,-0.25,0</node>
			<node id="3">-2.5,0,0</node>
			<node id="4">-2.5,0.25,0</node>
			<node id="5">-2.5,0.5,0</node>
			<node id="6">-2.25,-0.5,0</node>
			<node id="7">-2.25,-0.25,0</node>
			<node id="8">-2.25,0,0</node>
			<node id="9">-2.25,0.25,0</node>
			<node id="10">-2.25,0.5,0</node>
			<node id="11">-2,-0.5,0</node>
			<node id="12">-2,-0.25,0</node>
			<node id="13">-2,0,0</node>
			<node id="14">-2,0.25,0</node>
			<node id="15">-2,0.5,0</node>
			<node id="16">-1.75,-0.5,0</node>
			<node id="17">-1.75,-0.25,0</node>
			<node id="18">-1.75,0,0</node>
			<node id="19">-1.75,0.25,0</node>
			<node id="20">-1.75,0.5,0</node>
<!-- ... 93 like lines cut -->
		</Nodes>
		<Elements type="quad4" name="Part45">
			<elem id="1">1,6,7,2</elem>
			<elem id="2">2,7,8,3</elem>
			<elem id="3">3,8,9,4</elem>
			<elem id="4">4,9,10,5</elem>
			<elem id="5">6,11,12,7</elem>
			<elem id="6">7,12,13,8</elem>
			<elem id="7">8,13,14,9</elem>
			<elem id="8">9,14,15,10</elem>
			<elem id="9">11,16,17,12</elem>
			<elem id="10">12,17,18,13</elem>
			<elem id="11">13,18,19,14</elem>
			<elem id="12">14,19,20,15</elem>
			<elem id="13">16,21,22,17</elem>
			<elem id="14">17,22,23,18</elem>
			<elem id="15">18,23,24,19</elem>
			<elem id="16">19,24,25,20</elem>
			<elem id="17">21,26,27,22</elem>
			<elem id="18">22,27,28,23</elem>
			<elem id="19">23,28,29,24</elem>
			<elem id="20">24,29,30,25</elem>
<!-- ... 60 like lines cut -->
		</Elements>
		<Elements type="hex8" name="Part46">
			<elem id="81">106,110,112,108,107,111,113,109</elem>
		</Elements>
		<NodeSet name="FixedDisplacement01">
			1, 2, 3, 4, 5
		</NodeSet>
		<NodeSet name="FixedDisplacement02">
			1, 2, 3, 4, 5
		</NodeSet>
		<NodeSet name="FixedDisplacement03">
			1, 2, 3, 4, 5
		</NodeSet>
		<NodeSet name="RigidNodeset 1">
			101, 102, 103, 104, 105
		</NodeSet>
		<ElementSet name="unnamed_set01">
			39
		</ElementSet>
	</Mesh>
	<MeshDomains>
		<ShellDomain name="Part45" mat="Material 1">
			<shell_thickness>0</shell_thickness>
		</ShellDomain>
		<SolidDomain name="Part46" mat="Material 2"/>
	</MeshDomains>
	<MeshData>
		<ElementData type="shell thickness" elem_set="Part45">
			<e lid="1">0.01,0.01,0.01,0.01</e>
			<e lid="2">0.01,0.01,0.01,0.01</e>
			<e lid="3">0.01,0.01,0.01,0.01</e>
			<e lid="4">0.01,0.01,0.01,0.01</e>
			<e lid="5">0.01,0.01,0.01,0.01</e>
			<e lid="6">0.01,0.01,0.01,0.01</e>
			<e lid="7">0.01,0.01,0.01,0.01</e>
			<e lid="8">0.01,0.01,0.01,0.01</e>
			<e lid="9">0.01,0.01,0.01,0.01</e>
			<e lid="10">0.01,0.01,0.01,0.01</e>
			<e lid="11">0.01,0.01,0.01,0.01</e>
			<e lid="12">0.01,0.01,0.01,0.01</e>
			<e lid="13">0.01,0.01,0.01,0.01</e>
			<e lid="14">0.01,0.01,0.01,0.01</e>
			<e lid="15">0.01,0.01,0.01,0.01</e>
			<e lid="16">0.01,0.01,0.01,0.01</e>
			<e lid="17">0.01,0.01,0.01,0.01</e>
			<e lid="18">0.01,0.01,0.01,0.01</e>
			<e lid="19">0.01,0.01,0.01,0.01</e>
			<e lid="20">0.01,0.01,0.01,0.01</e>
<!-- ... 60 like lines cut -->
		</ElementData>
	</MeshData>
	<Boundary>
		<bc name="FixedDisplacement01" node_set="FixedDisplacement01" type="zero displacement">
			<x_dof>0</x_dof>
			<y_dof>0</y_dof>
			<z_dof>1</z_dof>
		</bc>
		<bc name="FixedDisplacement02" node_set="FixedDisplacement02" type="zero displacement">
			<x_dof>0</x_dof>
			<y_dof>1</y_dof>
			<z_dof>0</z_dof>
		</bc>
		<bc name="FixedDisplacement03" node_set="FixedDisplacement03" type="zero displacement">
			<x_dof>1</x_dof>
			<y_dof>0</y_dof>
			<z_dof>0</z_dof>
		</bc>
		<bc name="RigidInterface02" node_set="RigidNodeset 1" type="rigid">
			<rb>Material 2</rb>
		</bc>
	</Boundary>
	<Rigid>
		<rigid_bc name="RigidFixed119" type="rigid_fixed">
			<rb>Material 2</rb>
			<Rx_dof>0</Rx_dof>
			<Ry_dof>1</Ry_dof>
			<Rz_dof>1</Rz_dof>
			<Ru_dof>1</Ru_dof>
			<Rv_dof>0</Rv_dof>
			<Rw_dof>1</Rw_dof>
		</rigid_bc>
		<rigid_bc name="RigidDisplacement47" type="rigid_rotation">
			<rb>Material 2</rb>
			<dof>Rv</dof>
			<value lc="1">1</value>
			<relative>0</relative>
		</rigid_bc>
	</Rigid>
	<LoadData>
		<load_controller id="1" name="LC1" type="loadcurve">
			<interpolate>LINEAR</interpolate>
			<extend>CONSTANT</extend>
			<points>
				<pt>0,0</pt>
				<pt>1,1</pt>
			</points>
		</load_controller>
	</LoadData>
	<Output>
		<plotfile type="febio">
			<var type="displacement"/>
			<var type="shell director"/>
			<var type="shell thickness"/>
			<var type="stress"/>
		</plotfile>
	</Output>
</febio_spec>
