<?xml version="1.0" encoding="ISO-8859-1"?>
<!--
Cylinder(20node hex) with shell(quad8) compresses and slides against 
a softer block(20node hex) with shell(quad8).
Top face of cylinder is prescribed z dispacement 0f 1.35 and then x displacement of 3 at t=4.
Two shells have same stiffness to converge.
-->
<febio_spec version="4.0">
	<Module type="solid"/>
	<Control>
		<analysis>STATIC</analysis>
		<time_steps>20</time_steps>
		<step_size>0.1</step_size>
		<plot_zero_state>0</plot_zero_state>
		<plot_range>0,-1</plot_range>
		<plot_level>PLOT_MAJOR_ITRS</plot_level>
		<output_level>OUTPUT_MAJOR_ITRS</output_level>
		<plot_stride>1</plot_stride>
		<output_stride>1</output_stride>
		<adaptor_re_solve>1</adaptor_re_solve>
		<time_stepper type="default">
			<max_retries>5</max_retries>
			<opt_iter>15</opt_iter>
			<dtmin>0.01</dtmin>
			<dtmax>0.1</dtmax>
			<aggressiveness>0</aggressiveness>
			<cutback>0.5</cutback>
			<dtforce>0</dtforce>
		</time_stepper>
		<solver type="solid">
			<symmetric_stiffness>non-symmetric</symmetric_stiffness>
			<equation_scheme>staggered</equation_scheme>
			<equation_order>default</equation_order>
			<optimize_bw>0</optimize_bw>
			<lstol>0.9</lstol>
			<lsmin>0.01</lsmin>
			<lsiter>5</lsiter>
			<max_refs>25</max_refs>
			<check_zero_diagonal>0</check_zero_diagonal>
			<zero_diagonal_tol>0</zero_diagonal_tol>
			<force_partition>0</force_partition>
			<reform_each_time_step>1</reform_each_time_step>
			<reform_augment>0</reform_augment>
			<diverge_reform>1</diverge_reform>
			<min_residual>1e-20</min_residual>
			<max_residual>0</max_residual>
			<dtol>0.001</dtol>
			<etol>0.01</etol>
			<rtol>0</rtol>
			<rhoi>-2</rhoi>
			<alpha>1</alpha>
			<beta>0.25</beta>
			<gamma>0.5</gamma>
			<logSolve>0</logSolve>
			<arc_length>0</arc_length>
			<arc_length_scale>0</arc_length_scale>
			<qn_method type="BFGS">
				<max_ups>0</max_ups>
				<max_buffer_size>0</max_buffer_size>
				<cycle_buffer>1</cycle_buffer>
				<cmax>100000</cmax>
			</qn_method>
		</solver>
	</Control>
	<Globals>
		<Constants>
			<T>293</T>
			<P>0</P>
			<R>0.008314</R>
			<Fc>0.0965</Fc>
		</Constants>
	</Globals>
	<Material>
		<material id="1" name="mat1" type="neo-Hookean">
			<density>1</density>
			<E>1</E>
			<v>0</v>
		</material>
		<material id="2" name="mat2" type="neo-Hookean">
			<density>1</density>
			<E>10000</E>
			<v>0</v>
		</material>
		<material id="3" name="mat3" type="neo-Hookean">
			<density>1</density>
			<E>10000</E>
			<v>0</v>
		</material>
		<material id="4" name="mat4" type="neo-Hookean">
			<density>1</density>
			<E>100</E>
			<v>0</v>
		</material>
	</Material>
	<Mesh>
		<Nodes name="Object01">
			<node id="86">-2.5,-2.4980018e-16,0</node>
			<node id="87">-2.5,-2.4980018e-16,0.1</node>
			<node id="88">-2.5,-2.4980018e-16,0.2</node>
			<node id="89">-2.5,-2.4980018e-16,0.3</node>
			<node id="90">-2.5,-2.4980018e-16,0.4</node>
			<node id="91">-2.5,-2.4980018e-16,0.5</node>
			<node id="92">-2.5,-2.4980018e-16,0.6</node>
			<node id="93">-2.5,-2.4980018e-16,0.7</node>
			<node id="94">-2.5,-2.4980018e-16,0.8</node>
			<node id="95">-2.5,-2.4980018e-16,0.9</node>
			<node id="96">-2.5,-2.4980018e-16,1</node>
			<node id="97">-2.5,0.09,0</node>
			<node id="98">-2.5,0.09,0.2</node>
			<node id="99">-2.5,0.09,0.4</node>
			<node id="100">-2.5,0.09,0.6</node>
			<node id="101">-2.5,0.09,0.8</node>
			<node id="102">-2.5,0.09,1</node>
			<node id="103">-2.5,0.18,0</node>
			<node id="104">-2.5,0.18,0.1</node>
			<node id="105">-2.5,0.18,0.2</node>
<!-- ... 3304 like lines cut -->
		</Nodes>
		<Elements type="hex20" name="Part7">
			<elem id="1">86,333,350,103,88,335,352,105,212,344,218,97,213,345,219,98,87,334,351,104</elem>
			<elem id="2">88,335,352,105,90,337,354,107,213,345,219,98,214,346,220,99,89,336,353,106</elem>
			<elem id="3">90,337,354,107,92,339,356,109,214,346,220,99,215,347,221,100,91,338,355,108</elem>
			<elem id="4">92,339,356,109,94,341,358,111,215,347,221,100,216,348,222,101,93,340,357,110</elem>
			<elem id="5">94,341,358,111,96,343,360,113,216,348,222,101,217,349,223,102,95,342,359,112</elem>
			<elem id="6">103,350,367,120,105,352,369,122,218,361,224,114,219,362,225,115,104,351,368,121</elem>
			<elem id="7">105,352,369,122,107,354,371,124,219,362,225,115,220,363,226,116,106,353,370,123</elem>
			<elem id="8">107,354,371,124,109,356,373,126,220,363,226,116,221,364,227,117,108,355,372,125</elem>
			<elem id="9">109,356,373,126,111,358,375,128,221,364,227,117,222,365,228,118,110,357,374,127</elem>
			<elem id="10">111,358,375,128,113,360,377,130,222,365,228,118,223,366,229,119,112,359,376,129</elem>
			<elem id="11">120,367,384,137,122,369,386,139,224,378,230,131,225,379,231,132,121,368,385,138</elem>
			<elem id="12">122,369,386,139,124,371,388,141,225,379,231,132,226,380,232,133,123,370,387,140</elem>
			<elem id="13">124,371,388,141,126,373,390,143,226,380,232,133,227,381,233,134,125,372,389,142</elem>
			<elem id="14">126,373,390,143,128,375,392,145,227,381,233,134,228,382,234,135,127,374,391,144</elem>
			<elem id="15">128,375,392,145,130,377,394,147,228,382,234,135,229,383,235,136,129,376,393,146</elem>
			<elem id="16">137,384,401,154,139,386,403,156,230,395,236,148,231,396,237,149,138,385,402,155</elem>
			<elem id="17">139,386,403,156,141,388,405,158,231,396,237,149,232,397,238,150,140,387,404,157</elem>
			<elem id="18">141,388,405,158,143,390,407,160,232,397,238,150,233,398,239,151,142,389,406,159</elem>
			<elem id="19">143,390,407,160,145,392,409,162,233,398,239,151,234,399,240,152,144,391,408,161</elem>
			<elem id="20">145,392,409,162,147,394,411,164,234,399,240,152,235,400,241,153,146,393,410,163</elem>
<!-- ... 480 like lines cut -->
		</Elements>
		<Elements type="quad8" name="Part10">
			<elem id="501">96,343,360,113,217,349,223,102</elem>
			<elem id="502">113,360,377,130,223,366,229,119</elem>
			<elem id="503">130,377,394,147,229,383,235,136</elem>
			<elem id="504">147,394,411,164,235,400,241,153</elem>
			<elem id="505">164,411,428,181,241,417,247,170</elem>
			<elem id="506">343,590,607,360,464,596,470,349</elem>
			<elem id="507">360,607,624,377,470,613,476,366</elem>
			<elem id="508">377,624,641,394,476,630,482,383</elem>
			<elem id="509">394,641,658,411,482,647,488,400</elem>
			<elem id="510">411,658,675,428,488,664,494,417</elem>
			<elem id="511">590,837,854,607,711,843,717,596</elem>
			<elem id="512">607,854,871,624,717,860,723,613</elem>
			<elem id="513">624,871,888,641,723,877,729,630</elem>
			<elem id="514">641,888,905,658,729,894,735,647</elem>
			<elem id="515">658,905,922,675,735,911,741,664</elem>
			<elem id="516">837,1084,1101,854,958,1090,964,843</elem>
			<elem id="517">854,1101,1118,871,964,1107,970,860</elem>
			<elem id="518">871,1118,1135,888,970,1124,976,877</elem>
			<elem id="519">888,1135,1152,905,976,1141,982,894</elem>
			<elem id="520">905,1152,1169,922,982,1158,988,911</elem>
<!-- ... 80 like lines cut -->
		</Elements>
		<Elements type="hex20" name="Part7(2)">
			<elem id="601">5124,5125,5127,5126,5154,5155,5157,5156,5457,5461,5462,5459,5530,5533,5535,5531,5458,5460,5465,5463</elem>
			<elem id="602">5126,5127,5129,5128,5156,5157,5159,5158,5462,5466,5467,5464,5535,5538,5540,5536,5463,5465,5470,5468</elem>
			<elem id="603">5128,5129,5131,5130,5158,5159,5161,5160,5467,5471,5472,5469,5540,5543,5545,5541,5468,5470,5475,5473</elem>
			<elem id="604">5130,5131,5133,5132,5160,5161,5163,5162,5472,5476,5477,5474,5545,5548,5550,5546,5473,5475,5480,5478</elem>
			<elem id="605">5132,5133,5135,5134,5162,5163,5165,5164,5477,5481,5482,5479,5550,5553,5555,5551,5478,5480,5485,5483</elem>
			<elem id="606">5134,5135,5137,5136,5164,5165,5167,5166,5482,5486,5487,5484,5555,5558,5560,5556,5483,5485,5490,5488</elem>
			<elem id="607">5136,5137,5139,5138,5166,5167,5169,5168,5487,5491,5492,5489,5560,5563,5565,5561,5488,5490,5495,5493</elem>
			<elem id="608">5138,5139,5141,5140,5168,5169,5171,5170,5492,5496,5497,5494,5565,5568,5570,5566,5493,5495,5500,5498</elem>
			<elem id="609">5140,5141,5143,5142,5170,5171,5173,5172,5497,5501,5502,5499,5570,5573,5575,5571,5498,5500,5505,5503</elem>
			<elem id="610">5142,5143,5145,5144,5172,5173,5175,5174,5502,5506,5507,5504,5575,5578,5580,5576,5503,5505,5510,5508</elem>
			<elem id="611">5144,5145,5147,5146,5174,5175,5177,5176,5507,5511,5512,5509,5580,5583,5585,5581,5508,5510,5515,5513</elem>
			<elem id="612">5146,5147,5149,5148,5176,5177,5179,5178,5512,5516,5517,5514,5585,5588,5590,5586,5513,5515,5520,5518</elem>
			<elem id="613">5148,5149,5151,5150,5178,5179,5181,5180,5517,5521,5522,5519,5590,5593,5595,5591,5518,5520,5524,5523</elem>
			<elem id="614">5150,5151,5123,5122,5180,5181,5153,5152,5522,5456,5452,5454,5595,5528,5525,5526,5523,5524,5455,5453</elem>
			<elem id="615">5154,5155,5157,5156,5184,5185,5187,5186,5530,5533,5535,5531,5603,5606,5608,5604,5532,5534,5539,5537</elem>
			<elem id="616">5156,5157,5159,5158,5186,5187,5189,5188,5535,5538,5540,5536,5608,5611,5613,5609,5537,5539,5544,5542</elem>
			<elem id="617">5158,5159,5161,5160,5188,5189,5191,5190,5540,5543,5545,5541,5613,5616,5618,5614,5542,5544,5549,5547</elem>
			<elem id="618">5160,5161,5163,5162,5190,5191,5193,5192,5545,5548,5550,5546,5618,5621,5623,5619,5547,5549,5554,5552</elem>
			<elem id="619">5162,5163,5165,5164,5192,5193,5195,5194,5550,5553,5555,5551,5623,5626,5628,5624,5552,5554,5559,5557</elem>
			<elem id="620">5164,5165,5167,5166,5194,5195,5197,5196,5555,5558,5560,5556,5628,5631,5633,5629,5557,5559,5564,5562</elem>
<!-- ... 50 like lines cut -->
		</Elements>
		<Elements type="quad8" name="Part8">
			<elem id="1341">5125,5127,5157,5155,5461,5465,5533,5460</elem>
			<elem id="1342">5127,5129,5159,5157,5466,5470,5538,5465</elem>
			<elem id="1343">5129,5131,5161,5159,5471,5475,5543,5470</elem>
			<elem id="1344">5131,5133,5163,5161,5476,5480,5548,5475</elem>
			<elem id="1345">5133,5135,5165,5163,5481,5485,5553,5480</elem>
			<elem id="1346">5135,5137,5167,5165,5486,5490,5558,5485</elem>
			<elem id="1347">5137,5139,5169,5167,5491,5495,5563,5490</elem>
			<elem id="1348">5139,5141,5171,5169,5496,5500,5568,5495</elem>
			<elem id="1349">5141,5143,5173,5171,5501,5505,5573,5500</elem>
			<elem id="1350">5143,5145,5175,5173,5506,5510,5578,5505</elem>
			<elem id="1351">5145,5147,5177,5175,5511,5515,5583,5510</elem>
			<elem id="1352">5147,5149,5179,5177,5516,5520,5588,5515</elem>
			<elem id="1353">5149,5151,5181,5179,5521,5524,5593,5520</elem>
			<elem id="1354">5151,5123,5153,5181,5456,5455,5528,5524</elem>
			<elem id="1355">5155,5157,5187,5185,5533,5539,5606,5534</elem>
			<elem id="1356">5157,5159,5189,5187,5538,5544,5611,5539</elem>
			<elem id="1357">5159,5161,5191,5189,5543,5549,5616,5544</elem>
			<elem id="1358">5161,5163,5193,5191,5548,5554,5621,5549</elem>
			<elem id="1359">5163,5165,5195,5193,5553,5559,5626,5554</elem>
			<elem id="1360">5165,5167,5197,5195,5558,5564,5631,5559</elem>
<!-- ... 50 like lines cut -->
		</Elements>
		<NodeSet name="FixedDisplacement01">
			86, 97, 103, 114, 120, 131, 137, 148,
			154, 165, 171, 212, 218, 224, 230, 236,
			242, 333, 344, 350, 361, 367, 378, 384,
			395, 401, 412, 418, 459, 465, 471, 477,
			483, 489, 580, 591, 597, 608, 614, 625,
			631, 642, 648, 659, 665, 706, 712, 718,
			724, 730, 736, 827, 838, 844, 855, 861,
			872, 878, 889, 895, 906, 912, 953, 959,
			965, 971, 977, 983, 1074, 1085, 1091, 1102,
			1108, 1119, 1125, 1136, 1142, 1153, 1159, 1200,
			1206, 1212, 1218, 1224, 1230, 1321, 1332, 1338,
			1349, 1355, 1366, 1372, 1383, 1389, 1400, 1406,
			1447, 1453, 1459, 1465, 1471, 1477, 1568, 1579,
			1585, 1596, 1602, 1613, 1619, 1630, 1636, 1647,
			1653, 1694, 1700, 1706, 1712, 1718, 1724, 1815,
			1826, 1832, 1843, 1849, 1860, 1866, 1877, 1883,
			1894, 1900, 1941, 1947, 1953, 1959, 1965, 1971,
			2062, 2073, 2079, 2090, 2096, 2107, 2113, 2124,
			2130, 2141, 2147, 2188, 2194, 2200, 2206, 2212,
			2218, 2309, 2320, 2326, 2337, 2343, 2354, 2360,
<!-- ... 24 like lines cut -->
		</NodeSet>
		<Surface name="FixedDisplacement02">
			<quad8 id="1">96,343,360,113,217,349,223,102</quad8>
			<quad8 id="2">113,360,377,130,223,366,229,119</quad8>
			<quad8 id="3">130,377,394,147,229,383,235,136</quad8>
			<quad8 id="4">147,394,411,164,235,400,241,153</quad8>
			<quad8 id="5">164,411,428,181,241,417,247,170</quad8>
			<quad8 id="6">343,590,607,360,464,596,470,349</quad8>
			<quad8 id="7">360,607,624,377,470,613,476,366</quad8>
			<quad8 id="8">377,624,641,394,476,630,482,383</quad8>
			<quad8 id="9">394,641,658,411,482,647,488,400</quad8>
			<quad8 id="10">411,658,675,428,488,664,494,417</quad8>
			<quad8 id="11">590,837,854,607,711,843,717,596</quad8>
			<quad8 id="12">607,854,871,624,717,860,723,613</quad8>
			<quad8 id="13">624,871,888,641,723,877,729,630</quad8>
			<quad8 id="14">641,888,905,658,729,894,735,647</quad8>
			<quad8 id="15">658,905,922,675,735,911,741,664</quad8>
			<quad8 id="16">837,1084,1101,854,958,1090,964,843</quad8>
			<quad8 id="17">854,1101,1118,871,964,1107,970,860</quad8>
			<quad8 id="18">871,1118,1135,888,970,1124,976,877</quad8>
			<quad8 id="19">888,1135,1152,905,976,1141,982,894</quad8>
			<quad8 id="20">905,1152,1169,922,982,1158,988,911</quad8>
<!-- ... 80 like lines cut -->
		</Surface>
		<Surface name="FixedDisplacement03">
			<quad8 id="1">5126,5124,5154,5156,5459,5458,5531,5463</quad8>
			<quad8 id="2">5128,5126,5156,5158,5464,5463,5536,5468</quad8>
			<quad8 id="3">5130,5128,5158,5160,5469,5468,5541,5473</quad8>
			<quad8 id="4">5132,5130,5160,5162,5474,5473,5546,5478</quad8>
			<quad8 id="5">5134,5132,5162,5164,5479,5478,5551,5483</quad8>
			<quad8 id="6">5136,5134,5164,5166,5484,5483,5556,5488</quad8>
			<quad8 id="7">5138,5136,5166,5168,5489,5488,5561,5493</quad8>
			<quad8 id="8">5140,5138,5168,5170,5494,5493,5566,5498</quad8>
			<quad8 id="9">5142,5140,5170,5172,5499,5498,5571,5503</quad8>
			<quad8 id="10">5144,5142,5172,5174,5504,5503,5576,5508</quad8>
			<quad8 id="11">5146,5144,5174,5176,5509,5508,5581,5513</quad8>
			<quad8 id="12">5148,5146,5176,5178,5514,5513,5586,5518</quad8>
			<quad8 id="13">5150,5148,5178,5180,5519,5518,5591,5523</quad8>
			<quad8 id="14">5122,5150,5180,5152,5454,5523,5526,5453</quad8>
			<quad8 id="15">5156,5154,5184,5186,5531,5532,5604,5537</quad8>
			<quad8 id="16">5158,5156,5186,5188,5536,5537,5609,5542</quad8>
			<quad8 id="17">5160,5158,5188,5190,5541,5542,5614,5547</quad8>
			<quad8 id="18">5162,5160,5190,5192,5546,5547,5619,5552</quad8>
			<quad8 id="19">5164,5162,5192,5194,5551,5552,5624,5557</quad8>
			<quad8 id="20">5166,5164,5194,5196,5556,5557,5629,5562</quad8>
<!-- ... 50 like lines cut -->
		</Surface>
		<Surface name="TCInterface01Primary">
			<quad8 id="1">5125,5127,5157,5155,5461,5465,5533,5460</quad8>
			<quad8 id="2">5127,5129,5159,5157,5466,5470,5538,5465</quad8>
			<quad8 id="3">5129,5131,5161,5159,5471,5475,5543,5470</quad8>
			<quad8 id="4">5131,5133,5163,5161,5476,5480,5548,5475</quad8>
			<quad8 id="5">5133,5135,5165,5163,5481,5485,5553,5480</quad8>
			<quad8 id="6">5135,5137,5167,5165,5486,5490,5558,5485</quad8>
			<quad8 id="7">5137,5139,5169,5167,5491,5495,5563,5490</quad8>
			<quad8 id="8">5139,5141,5171,5169,5496,5500,5568,5495</quad8>
			<quad8 id="9">5141,5143,5173,5171,5501,5505,5573,5500</quad8>
			<quad8 id="10">5143,5145,5175,5173,5506,5510,5578,5505</quad8>
			<quad8 id="11">5145,5147,5177,5175,5511,5515,5583,5510</quad8>
			<quad8 id="12">5147,5149,5179,5177,5516,5520,5588,5515</quad8>
			<quad8 id="13">5149,5151,5181,5179,5521,5524,5593,5520</quad8>
			<quad8 id="14">5151,5123,5153,5181,5456,5455,5528,5524</quad8>
			<quad8 id="15">5155,5157,5187,5185,5533,5539,5606,5534</quad8>
			<quad8 id="16">5157,5159,5189,5187,5538,5544,5611,5539</quad8>
			<quad8 id="17">5159,5161,5191,5189,5543,5549,5616,5544</quad8>
			<quad8 id="18">5161,5163,5193,5191,5548,5554,5621,5549</quad8>
			<quad8 id="19">5163,5165,5195,5193,5553,5559,5626,5554</quad8>
			<quad8 id="20">5165,5167,5197,5195,5558,5564,5631,5559</quad8>
<!-- ... 50 like lines cut -->
		</Surface>
		<Surface name="TCInterface01Secondary">
			<quad8 id="1">96,343,360,113,217,349,223,102</quad8>
			<quad8 id="2">113,360,377,130,223,366,229,119</quad8>
			<quad8 id="3">130,377,394,147,229,383,235,136</quad8>
			<quad8 id="4">147,394,411,164,235,400,241,153</quad8>
			<quad8 id="5">164,411,428,181,241,417,247,170</quad8>
			<quad8 id="6">343,590,607,360,464,596,470,349</quad8>
			<quad8 id="7">360,607,624,377,470,613,476,366</quad8>
			<quad8 id="8">377,624,641,394,476,630,482,383</quad8>
			<quad8 id="9">394,641,658,411,482,647,488,400</quad8>
			<quad8 id="10">411,658,675,428,488,664,494,417</quad8>
			<quad8 id="11">590,837,854,607,711,843,717,596</quad8>
			<quad8 id="12">607,854,871,624,717,860,723,613</quad8>
			<quad8 id="13">624,871,888,641,723,877,729,630</quad8>
			<quad8 id="14">641,888,905,658,729,894,735,647</quad8>
			<quad8 id="15">658,905,922,675,735,911,741,664</quad8>
			<quad8 id="16">837,1084,1101,854,958,1090,964,843</quad8>
			<quad8 id="17">854,1101,1118,871,964,1107,970,860</quad8>
			<quad8 id="18">871,1118,1135,888,970,1124,976,877</quad8>
			<quad8 id="19">888,1135,1152,905,976,1141,982,894</quad8>
			<quad8 id="20">905,1152,1169,922,982,1158,988,911</quad8>
<!-- ... 80 like lines cut -->
		</Surface>
		<SurfacePair name="TCInterface01">
			<primary>TCInterface01Primary</primary>
			<secondary>TCInterface01Secondary</secondary>
		</SurfacePair>
	</Mesh>
	<MeshDomains>
		<SolidDomain name="Part7" mat="mat1"/>
		<ShellDomain name="Part10" mat="mat2">
			<shell_thickness>0</shell_thickness>
		</ShellDomain>
		<SolidDomain name="Part7(2)" mat="mat4"/>
		<ShellDomain name="Part8" mat="mat3">
			<shell_thickness>0</shell_thickness>
		</ShellDomain>
	</MeshDomains>
	<MeshData>
		<ElementData type="shell thickness" elem_set="Part10">
			<e lid="1">0.01,0.01,0.01,0.01,0.01,0.01,0.01,0.01</e>
			<e lid="2">0.01,0.01,0.01,0.01,0.01,0.01,0.01,0.01</e>
			<e lid="3">0.01,0.01,0.01,0.01,0.01,0.01,0.01,0.01</e>
			<e lid="4">0.01,0.01,0.01,0.01,0.01,0.01,0.01,0.01</e>
			<e lid="5">0.01,0.01,0.01,0.01,0.01,0.01,0.01,0.01</e>
			<e lid="6">0.01,0.01,0.01,0.01,0.01,0.01,0.01,0.01</e>
			<e lid="7">0.01,0.01,0.01,0.01,0.01,0.01,0.01,0.01</e>
			<e lid="8">0.01,0.01,0.01,0.01,0.01,0.01,0.01,0.01</e>
			<e lid="9">0.01,0.01,0.01,0.01,0.01,0.01,0.01,0.01</e>
			<e lid="10">0.01,0.01,0.01,0.01,0.01,0.01,0.01,0.01</e>
			<e lid="11">0.01,0.01,0.01,0.01,0.01,0.01,0.01,0.01</e>
			<e lid="12">0.01,0.01,0.01,0.01,0.01,0.01,0.01,0.01</e>
			<e lid="13">0.01,0.01,0.01,0.01,0.01,0.01,0.01,0.01</e>
			<e lid="14">0.01,0.01,0.01,0.01,0.01,0.01,0.01,0.01</e>
			<e lid="15">0.01,0.01,0.01,0.01,0.01,0.01,0.01,0.01</e>
			<e lid="16">0.01,0.01,0.01,0.01,0.01,0.01,0.01,0.01</e>
			<e lid="17">0.01,0.01,0.01,0.01,0.01,0.01,0.01,0.01</e>
			<e lid="18">0.01,0.01,0.01,0.01,0.01,0.01,0.01,0.01</e>
			<e lid="19">0.01,0.01,0.01,0.01,0.01,0.01,0.01,0.01</e>
			<e lid="20">0.01,0.01,0.01,0.01,0.01,0.01,0.01,0.01</e>
<!-- ... 80 like lines cut -->
		</ElementData>
		<ElementData type="shell thickness" elem_set="Part8">
			<e lid="1">0.01,0.01,0.01,0.01,0.01,0.01,0.01,0.01</e>
			<e lid="2">0.01,0.01,0.01,0.01,0.01,0.01,0.01,0.01</e>
			<e lid="3">0.01,0.01,0.01,0.01,0.01,0.01,0.01,0.01</e>
			<e lid="4">0.01,0.01,0.01,0.01,0.01,0.01,0.01,0.01</e>
			<e lid="5">0.01,0.01,0.01,0.01,0.01,0.01,0.01,0.01</e>
			<e lid="6">0.01,0.01,0.01,0.01,0.01,0.01,0.01,0.01</e>
			<e lid="7">0.01,0.01,0.01,0.01,0.01,0.01,0.01,0.01</e>
			<e lid="8">0.01,0.01,0.01,0.01,0.01,0.01,0.01,0.01</e>
			<e lid="9">0.01,0.01,0.01,0.01,0.01,0.01,0.01,0.01</e>
			<e lid="10">0.01,0.01,0.01,0.01,0.01,0.01,0.01,0.01</e>
			<e lid="11">0.01,0.01,0.01,0.01,0.01,0.01,0.01,0.01</e>
			<e lid="12">0.01,0.01,0.01,0.01,0.01,0.01,0.01,0.01</e>
			<e lid="13">0.01,0.01,0.01,0.01,0.01,0.01,0.01,0.01</e>
			<e lid="14">0.01,0.01,0.01,0.01,0.01,0.01,0.01,0.01</e>
			<e lid="15">0.01,0.01,0.01,0.01,0.01,0.01,0.01,0.01</e>
			<e lid="16">0.01,0.01,0.01,0.01,0.01,0.01,0.01,0.01</e>
			<e lid="17">0.01,0.01,0.01,0.01,0.01,0.01,0.01,0.01</e>
			<e lid="18">0.01,0.01,0.01,0.01,0.01,0.01,0.01,0.01</e>
			<e lid="19">0.01,0.01,0.01,0.01,0.01,0.01,0.01,0.01</e>
			<e lid="20">0.01,0.01,0.01,0.01,0.01,0.01,0.01,0.01</e>
<!-- ... 50 like lines cut -->
		</ElementData>
	</MeshData>
	<Boundary>
		<bc name="FixedDisplacement01" node_set="FixedDisplacement01" type="zero displacement">
			<x_dof>1</x_dof>
			<y_dof>1</y_dof>
			<z_dof>1</z_dof>
		</bc>
		<bc name="FixedDisplacement02" node_set="@surface:FixedDisplacement02" type="zero displacement">
			<x_dof>1</x_dof>
			<y_dof>1</y_dof>
			<z_dof>0</z_dof>
		</bc>
		<bc name="FixedDisplacement03" node_set="@surface:FixedDisplacement03" type="zero displacement">
			<x_dof>0</x_dof>
			<y_dof>1</y_dof>
			<z_dof>0</z_dof>
		</bc>
		<bc name="box2x" node_set="@surface:FixedDisplacement03" type="prescribed displacement">
			<dof>x</dof>
			<value lc="1">1</value>
			<relative>0</relative>
		</bc>
		<bc name="box2z" node_set="@surface:FixedDisplacement03" type="prescribed displacement">
			<dof>z</dof>
			<value lc="2">1</value>
			<relative>0</relative>
		</bc>
	</Boundary>
	<Contact>
		<contact name="TCInterface01" surface_pair="TCInterface01" type="sliding-elastic">
			<laugon>PENALTY</laugon>
			<tolerance>0.1</tolerance>
			<gaptol>0</gaptol>
			<penalty>0.0001</penalty>
			<auto_penalty>1</auto_penalty>
			<update_penalty>0</update_penalty>
			<two_pass>1</two_pass>
			<knmult>0</knmult>
			<search_tol>0.01</search_tol>
			<symmetric_stiffness>0</symmetric_stiffness>
			<search_radius>1</search_radius>
			<seg_up>0</seg_up>
			<tension>0</tension>
			<minaug>0</minaug>
			<maxaug>10</maxaug>
			<node_reloc>0</node_reloc>
			<fric_coeff>0</fric_coeff>
			<smooth_aug>0</smooth_aug>
			<flip_primary>0</flip_primary>
			<flip_secondary>0</flip_secondary>
			<shell_bottom_primary>0</shell_bottom_primary>
			<shell_bottom_secondary>0</shell_bottom_secondary>
			<offset>0</offset>
		</contact>
	</Contact>
	<LoadData>
		<load_controller id="1" name="LC1" type="loadcurve">
			<interpolate>LINEAR</interpolate>
			<extend>CONSTANT</extend>
			<points>
				<pt>0,0</pt>
				<pt>1,0</pt>
				<pt>4,3</pt>
			</points>
		</load_controller>
		<load_controller id="2" name="LC2" type="loadcurve">
			<interpolate>LINEAR</interpolate>
			<extend>CONSTANT</extend>
			<points>
				<pt>0,0</pt>
				<pt>0.1,-1</pt>
				<pt>1,-1.35</pt>
				<pt>2,-1.35</pt>
			</points>
		</load_controller>
	</LoadData>
	<Output>
		<plotfile type="febio">
			<var type="contact gap"/>
			<var type="contact pressure"/>
			<var type="displacement"/>
			<var type="relative volume"/>
			<var type="shell director"/>
			<var type="shell strain"/>
			<var type="stress"/>
		</plotfile>
	</Output>
</febio_spec>
