<?xml version="1.0" encoding="ISO-8859-1"?>
<febio_spec version="2.5">
	<Module type="solid"/>
	<Control>
		<time_steps>10</time_steps>
		<step_size>0.1</step_size>
		<max_refs>15</max_refs>
		<max_ups>0</max_ups>
		<diverge_reform>1</diverge_reform>
		<reform_each_time_step>1</reform_each_time_step>
		<dtol>0.001</dtol>
		<etol>0.01</etol>
		<rtol>0</rtol>
		<lstol>0.9</lstol>
		<min_residual>1e-020</min_residual>
		<qnmethod>0</qnmethod>
		<time_stepper>
			<dtmin>0.01</dtmin>
			<dtmax>0.1</dtmax>
			<max_retries>5</max_retries>
			<opt_iter>10</opt_iter>
		</time_stepper>
		<analysis type="static"/>
	</Control>
	<Globals>
		<Constants>
			<T>293</T>
			<R>0.008314</R>
			<Fc>0.0965</Fc>
		</Constants>
	</Globals>
	<Material>
		<material id="1" name="shell2" type="neo-Hookean">
			<density>1</density>
			<E>1</E>
			<v>0.3</v>
		</material>
		<material id="2" name="shell1" type="rigid body">
			<density>1</density>
			<center_of_mass>20,0,0</center_of_mass>
		</material>
	</Material>
	<Geometry>
		<Nodes name="sh42">
			<node id="1">-1.0000000e+001,-1.0000000e+000, 0.0000000e+000</node>
			<node id="2">-1.0000000e+001, 0.0000000e+000, 0.0000000e+000</node>
			<node id="3">-1.0000000e+001, 1.0000000e+000, 0.0000000e+000</node>
			<node id="4">-9.0000000e+000,-1.0000000e+000, 0.0000000e+000</node>
			<node id="5">-9.0000000e+000, 0.0000000e+000, 0.0000000e+000</node>
			<node id="6">-9.0000000e+000, 1.0000000e+000, 0.0000000e+000</node>
			<node id="7">-8.0000000e+000,-1.0000000e+000, 0.0000000e+000</node>
			<node id="8">-8.0000000e+000, 0.0000000e+000, 0.0000000e+000</node>
			<node id="9">-8.0000000e+000, 1.0000000e+000, 0.0000000e+000</node>
			<node id="10">-7.0000000e+000,-1.0000000e+000, 0.0000000e+000</node>
			<node id="11">-7.0000000e+000, 0.0000000e+000, 0.0000000e+000</node>
			<node id="12">-7.0000000e+000, 1.0000000e+000, 0.0000000e+000</node>
			<node id="13">-6.0000000e+000,-1.0000000e+000, 0.0000000e+000</node>
			<node id="14">-6.0000000e+000, 0.0000000e+000, 0.0000000e+000</node>
			<node id="15">-6.0000000e+000, 1.0000000e+000, 0.0000000e+000</node>
			<node id="16">-5.0000000e+000,-1.0000000e+000, 0.0000000e+000</node>
			<node id="17">-5.0000000e+000, 0.0000000e+000, 0.0000000e+000</node>
			<node id="18">-5.0000000e+000, 1.0000000e+000, 0.0000000e+000</node>
			<node id="19">-4.0000000e+000,-1.0000000e+000, 0.0000000e+000</node>
			<node id="20">-4.0000000e+000, 0.0000000e+000, 0.0000000e+000</node>
<!-- ... 51 like lines cut -->
		</Nodes>
		<Elements type="quad4" mat="1" name="Part3">
			<elem id="1">     1,     4,     5,     2</elem>
			<elem id="2">     2,     5,     6,     3</elem>
			<elem id="3">     4,     7,     8,     5</elem>
			<elem id="4">     5,     8,     9,     6</elem>
			<elem id="5">     7,    10,    11,     8</elem>
			<elem id="6">     8,    11,    12,     9</elem>
			<elem id="7">    10,    13,    14,    11</elem>
			<elem id="8">    11,    14,    15,    12</elem>
			<elem id="9">    13,    16,    17,    14</elem>
			<elem id="10">    14,    17,    18,    15</elem>
			<elem id="11">    16,    19,    20,    17</elem>
			<elem id="12">    17,    20,    21,    18</elem>
			<elem id="13">    19,    22,    23,    20</elem>
			<elem id="14">    20,    23,    24,    21</elem>
			<elem id="15">    22,    25,    26,    23</elem>
			<elem id="16">    23,    26,    27,    24</elem>
			<elem id="17">    25,    28,    29,    26</elem>
			<elem id="18">    26,    29,    30,    27</elem>
			<elem id="19">    28,    31,    32,    29</elem>
			<elem id="20">    29,    32,    33,    30</elem>
<!-- ... 20 like lines cut -->
		</Elements>
		<Elements type="hex8" mat="2" name="Part3">
			<elem id="41">    64,    68,    70,    66,    65,    69,    71,    67</elem>
		</Elements>
		<NodeSet name="unnamed_set01">
			<node id="4"/>
		</NodeSet>
		<NodeSet name="patch-x">
			<node id="1"/>
			<node id="2"/>
			<node id="3"/>
		</NodeSet>
		<NodeSet name="patch-x">
			<node id="1"/>
			<node id="2"/>
			<node id="3"/>
		</NodeSet>
		<NodeSet name="patchz">
			<node id="1"/>
			<node id="2"/>
			<node id="3"/>
			<node id="4"/>
			<node id="5"/>
			<node id="6"/>
			<node id="7"/>
			<node id="8"/>
			<node id="9"/>
			<node id="10"/>
			<node id="11"/>
			<node id="12"/>
			<node id="13"/>
			<node id="14"/>
			<node id="15"/>
			<node id="16"/>
			<node id="17"/>
			<node id="18"/>
			<node id="19"/>
			<node id="20"/>
<!-- ... 43 like lines cut -->
		</NodeSet>
		<NodeSet name="RigidNodeset 1">
			<node id="61"/>
			<node id="62"/>
			<node id="63"/>
		</NodeSet>
		<NodeSet name="unnamed_set01">
			<node id="4"/>
		</NodeSet>
	</Geometry>
	<MeshData>
		<ElementData var="shell thickness" elem_set="Part3">
			<elem lid="1">0.01,0.01,0.01,0.01</elem>
			<elem lid="2">0.01,0.01,0.01,0.01</elem>
			<elem lid="3">0.01,0.01,0.01,0.01</elem>
			<elem lid="4">0.01,0.01,0.01,0.01</elem>
			<elem lid="5">0.01,0.01,0.01,0.01</elem>
			<elem lid="6">0.01,0.01,0.01,0.01</elem>
			<elem lid="7">0.01,0.01,0.01,0.01</elem>
			<elem lid="8">0.01,0.01,0.01,0.01</elem>
			<elem lid="9">0.01,0.01,0.01,0.01</elem>
			<elem lid="10">0.01,0.01,0.01,0.01</elem>
			<elem lid="11">0.01,0.01,0.01,0.01</elem>
			<elem lid="12">0.01,0.01,0.01,0.01</elem>
			<elem lid="13">0.01,0.01,0.01,0.01</elem>
			<elem lid="14">0.01,0.01,0.01,0.01</elem>
			<elem lid="15">0.01,0.01,0.01,0.01</elem>
			<elem lid="16">0.01,0.01,0.01,0.01</elem>
			<elem lid="17">0.01,0.01,0.01,0.01</elem>
			<elem lid="18">0.01,0.01,0.01,0.01</elem>
			<elem lid="19">0.01,0.01,0.01,0.01</elem>
			<elem lid="20">0.01,0.01,0.01,0.01</elem>
<!-- ... 20 like lines cut -->
		</ElementData>
	</MeshData>
	<Boundary>
		<fix bc="x,y,z" node_set="patch-x"/>
		<fix bc="sx,sy,sz" node_set="patch-x"/>
		<fix bc="y" node_set="patchz"/>
		<rigid name="RigidInterface02" rb="2" node_set="RigidNodeset 1"/>
		<rigid_body mat="2">
			<force bc="Ry" lc="1">1e-005</force>
		</rigid_body>
		<rigid_body mat="2">
			<fixed bc="y"/>
			<fixed bc="Rx"/>
			<fixed bc="Rz"/>
		</rigid_body>
	</Boundary>
	<Contact>
	</Contact>
	<LoadData>
		<loadcurve id="1" type="linear">
			<point>0,0</point>
			<point>1,1</point>
		</loadcurve>
	</LoadData>
	<Output>
		<plotfile type="febio">
			<var type="displacement"/>
			<var type="relative volume"/>
			<var type="shell director"/>
			<var type="shell strain"/>
			<var type="stress"/>
		</plotfile>
		<logfile>
			<node_data data="z" node_set="unnamed_set01"/>
		</logfile>
	</Output>
</febio_spec>
