<?xml version="1.0" encoding="ISO-8859-1"?>
<!--
Problem Description:
	Shell disc is fixed on edge and prescribed surface pressure on face.
	Edge is fixed and face is prescribed pressure load of -0.005 at t=1.
Main Features:
	quad4 shells
Secondary Features:
Materials:
	neo-Hookean
Degrees of Freedom: 1014
Results
	Steps Completed: 15
	Equilibrium Iterations: 59
	Right Hand Evaluations: 78
	Siffness Reformations: 59
	Other:
		The maximum z-displacement is 0.676 units at time t=1.
Comments:
-->
<febio_spec version="2.0">
	<Module type="solid"/>
	<Control>
		<time_steps>100</time_steps>
		<step_size>0.01</step_size>
		<max_refs>15</max_refs>
		<max_ups>0</max_ups>
		<dtol>0.001</dtol>
		<etol>0.01</etol>
		<rtol>0</rtol>
		<lstol>0.9</lstol>
		<time_stepper>
			<dtmin>0.01</dtmin>
			<dtmax>0.1</dtmax>
			<max_retries>5</max_retries>
			<opt_iter>10</opt_iter>
		</time_stepper>
		<analysis type="static"/>
	</Control>
	<Globals>
		<Constants>
			<T>293</T>
			<R>0.008314</R>
			<Fc>0.0965</Fc>
		</Constants>
	</Globals>
	<Material>
		<material id="1" name="Material2" type="neo-Hookean">
			<density>1</density>
			<E>1</E>
			<v>0.45</v>		
		</material>
	</Material>
	<Geometry>
		<Nodes>
			<node id="1"> -3.3426407e-01, -3.3426407e-01,  0.0000000e+00</node>
			<node id="2"> -3.4777878e-01, -2.3185252e-01,  0.0000000e+00</node>
			<node id="3"> -3.5718203e-01, -1.1906068e-01,  0.0000000e+00</node>
			<node id="4"> -3.6062446e-01,  0.0000000e+00,  0.0000000e+00</node>
			<node id="5"> -3.5718203e-01,  1.1906068e-01,  0.0000000e+00</node>
			<node id="6"> -3.4777878e-01,  2.3185252e-01,  0.0000000e+00</node>
			<node id="7"> -3.3426407e-01,  3.3426407e-01,  0.0000000e+00</node>
			<node id="8"> -2.3185252e-01, -3.4777878e-01,  0.0000000e+00</node>
			<node id="9"> -2.4284271e-01, -2.4284271e-01,  0.0000000e+00</node>
			<node id="10"> -2.5121994e-01, -1.2560997e-01,  0.0000000e+00</node>
			<node id="11"> -2.5455844e-01,  0.0000000e+00,  0.0000000e+00</node>
			<node id="12"> -2.5121994e-01,  1.2560997e-01,  0.0000000e+00</node>
			<node id="13"> -2.4284271e-01,  2.4284271e-01,  0.0000000e+00</node>
			<node id="14"> -2.3185252e-01,  3.4777878e-01,  0.0000000e+00</node>
			<node id="15"> -1.1906068e-01, -3.5718203e-01,  0.0000000e+00</node>
			<node id="16"> -1.2560997e-01, -2.5121994e-01,  0.0000000e+00</node>
			<node id="17"> -1.3142136e-01, -1.3142136e-01,  0.0000000e+00</node>
			<node id="18"> -1.3435029e-01,  0.0000000e+00,  0.0000000e+00</node>
			<node id="19"> -1.3142136e-01,  1.3142136e-01,  0.0000000e+00</node>
			<node id="20"> -1.2560997e-01,  2.5121994e-01,  0.0000000e+00</node>
<!-- ... 173 like lines cut -->
		</Nodes>
		<Elements type="quad4" mat="1" elset="Part1">
			<elem id="1">     1,     8,     9,     2</elem>
			<elem id="2">     8,    15,    16,     9</elem>
			<elem id="3">    15,    22,    23,    16</elem>
			<elem id="4">    22,    29,    30,    23</elem>
			<elem id="5">    29,    36,    37,    30</elem>
			<elem id="6">    36,    43,    44,    37</elem>
			<elem id="7">     2,     9,    10,     3</elem>
			<elem id="8">     9,    16,    17,    10</elem>
			<elem id="9">    16,    23,    24,    17</elem>
			<elem id="10">    23,    30,    31,    24</elem>
			<elem id="11">    30,    37,    38,    31</elem>
			<elem id="12">    37,    44,    45,    38</elem>
			<elem id="13">     3,    10,    11,     4</elem>
			<elem id="14">    10,    17,    18,    11</elem>
			<elem id="15">    17,    24,    25,    18</elem>
			<elem id="16">    24,    31,    32,    25</elem>
			<elem id="17">    31,    38,    39,    32</elem>
			<elem id="18">    38,    45,    46,    39</elem>
			<elem id="19">     4,    11,    12,     5</elem>
			<elem id="20">    11,    18,    19,    12</elem>
<!-- ... 160 like lines cut -->
		</Elements>
		<ElementData>
			<element id="1">
				<thickness>0.01,0.01,0.01,0.01</thickness>
			</element>
			<element id="2">
				<thickness>0.01,0.01,0.01,0.01</thickness>
			</element>
			<element id="3">
				<thickness>0.01,0.01,0.01,0.01</thickness>
			</element>
			<element id="4">
				<thickness>0.01,0.01,0.01,0.01</thickness>
			</element>
			<element id="5">
				<thickness>0.01,0.01,0.01,0.01</thickness>
			</element>
			<element id="6">
				<thickness>0.01,0.01,0.01,0.01</thickness>
			</element>
			<element id="7">
				<thickness>0.01,0.01,0.01,0.01</thickness>
			</element>
			<element id="8">
				<thickness>0.01,0.01,0.01,0.01</thickness>
			</element>
			<element id="9">
				<thickness>0.01,0.01,0.01,0.01</thickness>
			</element>
			<element id="10">
				<thickness>0.01,0.01,0.01,0.01</thickness>
			</element>
			<element id="11">
				<thickness>0.01,0.01,0.01,0.01</thickness>
			</element>
			<element id="12">
				<thickness>0.01,0.01,0.01,0.01</thickness>
			</element>
			<element id="13">
				<thickness>0.01,0.01,0.01,0.01</thickness>
			</element>
			<element id="14">
				<thickness>0.01,0.01,0.01,0.01</thickness>
			</element>
			<element id="15">
				<thickness>0.01,0.01,0.01,0.01</thickness>
			</element>
			<element id="16">
				<thickness>0.01,0.01,0.01,0.01</thickness>
			</element>
			<element id="17">
				<thickness>0.01,0.01,0.01,0.01</thickness>
			</element>
			<element id="18">
				<thickness>0.01,0.01,0.01,0.01</thickness>
			</element>
			<element id="19">
				<thickness>0.01,0.01,0.01,0.01</thickness>
			</element>
			<element id="20">
				<thickness>0.01,0.01,0.01,0.01</thickness>
			</element>
			<element id="21">
				<thickness>0.01,0.01,0.01,0.01</thickness>
			</element>
			<element id="22">
				<thickness>0.01,0.01,0.01,0.01</thickness>
			</element>
			<element id="23">
				<thickness>0.01,0.01,0.01,0.01</thickness>
			</element>
			<element id="24">
				<thickness>0.01,0.01,0.01,0.01</thickness>
			</element>
			<element id="25">
				<thickness>0.01,0.01,0.01,0.01</thickness>
			</element>
			<element id="26">
				<thickness>0.01,0.01,0.01,0.01</thickness>
			</element>
			<element id="27">
				<thickness>0.01,0.01,0.01,0.01</thickness>
			</element>
			<element id="28">
				<thickness>0.01,0.01,0.01,0.01</thickness>
			</element>
			<element id="29">
				<thickness>0.01,0.01,0.01,0.01</thickness>
			</element>
			<element id="30">
				<thickness>0.01,0.01,0.01,0.01</thickness>
			</element>
			<element id="31">
				<thickness>0.01,0.01,0.01,0.01</thickness>
			</element>
			<element id="32">
				<thickness>0.01,0.01,0.01,0.01</thickness>
			</element>
			<element id="33">
				<thickness>0.01,0.01,0.01,0.01</thickness>
			</element>
			<element id="34">
				<thickness>0.01,0.01,0.01,0.01</thickness>
			</element>
			<element id="35">
				<thickness>0.01,0.01,0.01,0.01</thickness>
			</element>
			<element id="36">
				<thickness>0.01,0.01,0.01,0.01</thickness>
			</element>
			<element id="37">
				<thickness>0.01,0.01,0.01,0.01</thickness>
			</element>
			<element id="38">
				<thickness>0.01,0.01,0.01,0.01</thickness>
			</element>
			<element id="39">
				<thickness>0.01,0.01,0.01,0.01</thickness>
			</element>
			<element id="40">
				<thickness>0.01,0.01,0.01,0.01</thickness>
			</element>
			<element id="41">
				<thickness>0.01,0.01,0.01,0.01</thickness>
			</element>
			<element id="42">
				<thickness>0.01,0.01,0.01,0.01</thickness>
			</element>
			<element id="43">
				<thickness>0.01,0.01,0.01,0.01</thickness>
			</element>
			<element id="44">
				<thickness>0.01,0.01,0.01,0.01</thickness>
			</element>
			<element id="45">
				<thickness>0.01,0.01,0.01,0.01</thickness>
			</element>
			<element id="46">
				<thickness>0.01,0.01,0.01,0.01</thickness>
			</element>
			<element id="47">
				<thickness>0.01,0.01,0.01,0.01</thickness>
			</element>
			<element id="48">
				<thickness>0.01,0.01,0.01,0.01</thickness>
			</element>
			<element id="49">
				<thickness>0.01,0.01,0.01,0.01</thickness>
			</element>
			<element id="50">
				<thickness>0.01,0.01,0.01,0.01</thickness>
			</element>
			<element id="51">
				<thickness>0.01,0.01,0.01,0.01</thickness>
			</element>
			<element id="52">
				<thickness>0.01,0.01,0.01,0.01</thickness>
			</element>
			<element id="53">
				<thickness>0.01,0.01,0.01,0.01</thickness>
			</element>
			<element id="54">
				<thickness>0.01,0.01,0.01,0.01</thickness>
			</element>
			<element id="55">
				<thickness>0.01,0.01,0.01,0.01</thickness>
			</element>
			<element id="56">
				<thickness>0.01,0.01,0.01,0.01</thickness>
			</element>
			<element id="57">
				<thickness>0.01,0.01,0.01,0.01</thickness>
			</element>
			<element id="58">
				<thickness>0.01,0.01,0.01,0.01</thickness>
			</element>
			<element id="59">
				<thickness>0.01,0.01,0.01,0.01</thickness>
			</element>
			<element id="60">
				<thickness>0.01,0.01,0.01,0.01</thickness>
			</element>
			<element id="61">
				<thickness>0.01,0.01,0.01,0.01</thickness>
			</element>
			<element id="62">
				<thickness>0.01,0.01,0.01,0.01</thickness>
			</element>
			<element id="63">
				<thickness>0.01,0.01,0.01,0.01</thickness>
			</element>
			<element id="64">
				<thickness>0.01,0.01,0.01,0.01</thickness>
			</element>
			<element id="65">
				<thickness>0.01,0.01,0.01,0.01</thickness>
			</element>
			<element id="66">
				<thickness>0.01,0.01,0.01,0.01</thickness>
			</element>
			<element id="67">
				<thickness>0.01,0.01,0.01,0.01</thickness>
			</element>
			<element id="68">
				<thickness>0.01,0.01,0.01,0.01</thickness>
			</element>
			<element id="69">
				<thickness>0.01,0.01,0.01,0.01</thickness>
			</element>
			<element id="70">
				<thickness>0.01,0.01,0.01,0.01</thickness>
			</element>
			<element id="71">
				<thickness>0.01,0.01,0.01,0.01</thickness>
			</element>
			<element id="72">
				<thickness>0.01,0.01,0.01,0.01</thickness>
			</element>
			<element id="73">
				<thickness>0.01,0.01,0.01,0.01</thickness>
			</element>
			<element id="74">
				<thickness>0.01,0.01,0.01,0.01</thickness>
			</element>
			<element id="75">
				<thickness>0.01,0.01,0.01,0.01</thickness>
			</element>
			<element id="76">
				<thickness>0.01,0.01,0.01,0.01</thickness>
			</element>
			<element id="77">
				<thickness>0.01,0.01,0.01,0.01</thickness>
			</element>
			<element id="78">
				<thickness>0.01,0.01,0.01,0.01</thickness>
			</element>
			<element id="79">
				<thickness>0.01,0.01,0.01,0.01</thickness>
			</element>
			<element id="80">
				<thickness>0.01,0.01,0.01,0.01</thickness>
			</element>
			<element id="81">
				<thickness>0.01,0.01,0.01,0.01</thickness>
			</element>
			<element id="82">
				<thickness>0.01,0.01,0.01,0.01</thickness>
			</element>
			<element id="83">
				<thickness>0.01,0.01,0.01,0.01</thickness>
			</element>
			<element id="84">
				<thickness>0.01,0.01,0.01,0.01</thickness>
			</element>
			<element id="85">
				<thickness>0.01,0.01,0.01,0.01</thickness>
			</element>
			<element id="86">
				<thickness>0.01,0.01,0.01,0.01</thickness>
			</element>
			<element id="87">
				<thickness>0.01,0.01,0.01,0.01</thickness>
			</element>
			<element id="88">
				<thickness>0.01,0.01,0.01,0.01</thickness>
			</element>
			<element id="89">
				<thickness>0.01,0.01,0.01,0.01</thickness>
			</element>
			<element id="90">
				<thickness>0.01,0.01,0.01,0.01</thickness>
			</element>
			<element id="91">
				<thickness>0.01,0.01,0.01,0.01</thickness>
			</element>
			<element id="92">
				<thickness>0.01,0.01,0.01,0.01</thickness>
			</element>
			<element id="93">
				<thickness>0.01,0.01,0.01,0.01</thickness>
			</element>
			<element id="94">
				<thickness>0.01,0.01,0.01,0.01</thickness>
			</element>
			<element id="95">
				<thickness>0.01,0.01,0.01,0.01</thickness>
			</element>
			<element id="96">
				<thickness>0.01,0.01,0.01,0.01</thickness>
			</element>
			<element id="97">
				<thickness>0.01,0.01,0.01,0.01</thickness>
			</element>
			<element id="98">
				<thickness>0.01,0.01,0.01,0.01</thickness>
			</element>
			<element id="99">
				<thickness>0.01,0.01,0.01,0.01</thickness>
			</element>
			<element id="100">
				<thickness>0.01,0.01,0.01,0.01</thickness>
			</element>
			<element id="101">
				<thickness>0.01,0.01,0.01,0.01</thickness>
			</element>
			<element id="102">
				<thickness>0.01,0.01,0.01,0.01</thickness>
			</element>
			<element id="103">
				<thickness>0.01,0.01,0.01,0.01</thickness>
			</element>
			<element id="104">
				<thickness>0.01,0.01,0.01,0.01</thickness>
			</element>
			<element id="105">
				<thickness>0.01,0.01,0.01,0.01</thickness>
			</element>
			<element id="106">
				<thickness>0.01,0.01,0.01,0.01</thickness>
			</element>
			<element id="107">
				<thickness>0.01,0.01,0.01,0.01</thickness>
			</element>
			<element id="108">
				<thickness>0.01,0.01,0.01,0.01</thickness>
			</element>
			<element id="109">
				<thickness>0.01,0.01,0.01,0.01</thickness>
			</element>
			<element id="110">
				<thickness>0.01,0.01,0.01,0.01</thickness>
			</element>
			<element id="111">
				<thickness>0.01,0.01,0.01,0.01</thickness>
			</element>
			<element id="112">
				<thickness>0.01,0.01,0.01,0.01</thickness>
			</element>
			<element id="113">
				<thickness>0.01,0.01,0.01,0.01</thickness>
			</element>
			<element id="114">
				<thickness>0.01,0.01,0.01,0.01</thickness>
			</element>
			<element id="115">
				<thickness>0.01,0.01,0.01,0.01</thickness>
			</element>
			<element id="116">
				<thickness>0.01,0.01,0.01,0.01</thickness>
			</element>
			<element id="117">
				<thickness>0.01,0.01,0.01,0.01</thickness>
			</element>
			<element id="118">
				<thickness>0.01,0.01,0.01,0.01</thickness>
			</element>
			<element id="119">
				<thickness>0.01,0.01,0.01,0.01</thickness>
			</element>
			<element id="120">
				<thickness>0.01,0.01,0.01,0.01</thickness>
			</element>
			<element id="121">
				<thickness>0.01,0.01,0.01,0.01</thickness>
			</element>
			<element id="122">
				<thickness>0.01,0.01,0.01,0.01</thickness>
			</element>
			<element id="123">
				<thickness>0.01,0.01,0.01,0.01</thickness>
			</element>
			<element id="124">
				<thickness>0.01,0.01,0.01,0.01</thickness>
			</element>
			<element id="125">
				<thickness>0.01,0.01,0.01,0.01</thickness>
			</element>
			<element id="126">
				<thickness>0.01,0.01,0.01,0.01</thickness>
			</element>
			<element id="127">
				<thickness>0.01,0.01,0.01,0.01</thickness>
			</element>
			<element id="128">
				<thickness>0.01,0.01,0.01,0.01</thickness>
			</element>
			<element id="129">
				<thickness>0.01,0.01,0.01,0.01</thickness>
			</element>
			<element id="130">
				<thickness>0.01,0.01,0.01,0.01</thickness>
			</element>
			<element id="131">
				<thickness>0.01,0.01,0.01,0.01</thickness>
			</element>
			<element id="132">
				<thickness>0.01,0.01,0.01,0.01</thickness>
			</element>
			<element id="133">
				<thickness>0.01,0.01,0.01,0.01</thickness>
			</element>
			<element id="134">
				<thickness>0.01,0.01,0.01,0.01</thickness>
			</element>
			<element id="135">
				<thickness>0.01,0.01,0.01,0.01</thickness>
			</element>
			<element id="136">
				<thickness>0.01,0.01,0.01,0.01</thickness>
			</element>
			<element id="137">
				<thickness>0.01,0.01,0.01,0.01</thickness>
			</element>
			<element id="138">
				<thickness>0.01,0.01,0.01,0.01</thickness>
			</element>
			<element id="139">
				<thickness>0.01,0.01,0.01,0.01</thickness>
			</element>
			<element id="140">
				<thickness>0.01,0.01,0.01,0.01</thickness>
			</element>
			<element id="141">
				<thickness>0.01,0.01,0.01,0.01</thickness>
			</element>
			<element id="142">
				<thickness>0.01,0.01,0.01,0.01</thickness>
			</element>
			<element id="143">
				<thickness>0.01,0.01,0.01,0.01</thickness>
			</element>
			<element id="144">
				<thickness>0.01,0.01,0.01,0.01</thickness>
			</element>
			<element id="145">
				<thickness>0.01,0.01,0.01,0.01</thickness>
			</element>
			<element id="146">
				<thickness>0.01,0.01,0.01,0.01</thickness>
			</element>
			<element id="147">
				<thickness>0.01,0.01,0.01,0.01</thickness>
			</element>
			<element id="148">
				<thickness>0.01,0.01,0.01,0.01</thickness>
			</element>
			<element id="149">
				<thickness>0.01,0.01,0.01,0.01</thickness>
			</element>
			<element id="150">
				<thickness>0.01,0.01,0.01,0.01</thickness>
			</element>
			<element id="151">
				<thickness>0.01,0.01,0.01,0.01</thickness>
			</element>
			<element id="152">
				<thickness>0.01,0.01,0.01,0.01</thickness>
			</element>
			<element id="153">
				<thickness>0.01,0.01,0.01,0.01</thickness>
			</element>
			<element id="154">
				<thickness>0.01,0.01,0.01,0.01</thickness>
			</element>
			<element id="155">
				<thickness>0.01,0.01,0.01,0.01</thickness>
			</element>
			<element id="156">
				<thickness>0.01,0.01,0.01,0.01</thickness>
			</element>
			<element id="157">
				<thickness>0.01,0.01,0.01,0.01</thickness>
			</element>
			<element id="158">
				<thickness>0.01,0.01,0.01,0.01</thickness>
			</element>
			<element id="159">
				<thickness>0.01,0.01,0.01,0.01</thickness>
			</element>
			<element id="160">
				<thickness>0.01,0.01,0.01,0.01</thickness>
			</element>
			<element id="161">
				<thickness>0.01,0.01,0.01,0.01</thickness>
			</element>
			<element id="162">
				<thickness>0.01,0.01,0.01,0.01</thickness>
			</element>
			<element id="163">
				<thickness>0.01,0.01,0.01,0.01</thickness>
			</element>
			<element id="164">
				<thickness>0.01,0.01,0.01,0.01</thickness>
			</element>
			<element id="165">
				<thickness>0.01,0.01,0.01,0.01</thickness>
			</element>
			<element id="166">
				<thickness>0.01,0.01,0.01,0.01</thickness>
			</element>
			<element id="167">
				<thickness>0.01,0.01,0.01,0.01</thickness>
			</element>
			<element id="168">
				<thickness>0.01,0.01,0.01,0.01</thickness>
			</element>
			<element id="169">
				<thickness>0.01,0.01,0.01,0.01</thickness>
			</element>
			<element id="170">
				<thickness>0.01,0.01,0.01,0.01</thickness>
			</element>
			<element id="171">
				<thickness>0.01,0.01,0.01,0.01</thickness>
			</element>
			<element id="172">
				<thickness>0.01,0.01,0.01,0.01</thickness>
			</element>
			<element id="173">
				<thickness>0.01,0.01,0.01,0.01</thickness>
			</element>
			<element id="174">
				<thickness>0.01,0.01,0.01,0.01</thickness>
			</element>
			<element id="175">
				<thickness>0.01,0.01,0.01,0.01</thickness>
			</element>
			<element id="176">
				<thickness>0.01,0.01,0.01,0.01</thickness>
			</element>
			<element id="177">
				<thickness>0.01,0.01,0.01,0.01</thickness>
			</element>
			<element id="178">
				<thickness>0.01,0.01,0.01,0.01</thickness>
			</element>
			<element id="179">
				<thickness>0.01,0.01,0.01,0.01</thickness>
			</element>
			<element id="180">
				<thickness>0.01,0.01,0.01,0.01</thickness>
			</element>
		</ElementData>
		<NodeSet name="patchz">
			<node id="1"/>
			<node id="2"/>
			<node id="3"/>
			<node id="4"/>
			<node id="5"/>
			<node id="6"/>
			<node id="7"/>
			<node id="8"/>
			<node id="9"/>
			<node id="10"/>
			<node id="11"/>
			<node id="12"/>
			<node id="13"/>
			<node id="14"/>
			<node id="15"/>
			<node id="16"/>
			<node id="17"/>
			<node id="18"/>
			<node id="19"/>
			<node id="20"/>
<!-- ... 173 like lines cut -->
		</NodeSet>
		<NodeSet name="edge">
			<node id="170"/>
			<node id="171"/>
			<node id="172"/>
			<node id="173"/>
			<node id="174"/>
			<node id="175"/>
			<node id="176"/>
			<node id="177"/>
			<node id="178"/>
			<node id="179"/>
			<node id="180"/>
			<node id="181"/>
			<node id="182"/>
			<node id="183"/>
			<node id="184"/>
			<node id="185"/>
			<node id="186"/>
			<node id="187"/>
			<node id="188"/>
			<node id="189"/>
<!-- ... 4 like lines cut -->
		</NodeSet>
		<Surface name="patchz">
				<quad4 id="1">    25,    32,    33,    26</quad4>
				<quad4 id="2">    32,    39,    40,    33</quad4>
				<quad4 id="3">    39,    46,    47,    40</quad4>
				<quad4 id="4">    26,    33,    34,    27</quad4>
				<quad4 id="5">    33,    40,    41,    34</quad4>
				<quad4 id="6">    40,    47,    48,    41</quad4>
				<quad4 id="7">    27,    34,    35,    28</quad4>
				<quad4 id="8">    34,    41,    42,    35</quad4>
				<quad4 id="9">    41,    48,    49,    42</quad4>
				<quad4 id="10">     4,    52,    53,     3</quad4>
				<quad4 id="11">     3,    53,    54,     2</quad4>
				<quad4 id="12">     2,    54,    55,     1</quad4>
				<quad4 id="13">     1,    55,    56,     8</quad4>
				<quad4 id="14">     8,    56,    57,    15</quad4>
				<quad4 id="15">    15,    57,    58,    22</quad4>
				<quad4 id="16">    52,    76,    77,    53</quad4>
				<quad4 id="17">    53,    77,    78,    54</quad4>
				<quad4 id="18">    54,    78,    79,    55</quad4>
				<quad4 id="19">    55,    79,    80,    56</quad4>
				<quad4 id="20">    56,    80,    81,    57</quad4>
<!-- ... 160 like lines cut -->
		</Surface>
	</Geometry>
	<Boundary>
		<fix bc="xyz" set="edge"/>
		<fix bc="sxyz" set="edge"/>
	</Boundary>
	<Loads>
		<surface_load type="pressure">
			<pressure lc="1">1</pressure>
			<linear>0</linear>
			<surface set="patchz"/>
		</surface_load>
	</Loads>
	<LoadData>
		<loadcurve id="1" type="linear">
			<point>0,0</point>
			<point>1,-0.005</point>
		</loadcurve>
	</LoadData>
	<Output>
		<plotfile type="febio">
			<var type="displacement"/>
			<var type="stress"/>
			<var type="relative volume"/>
			<var type="shell director"/>
			<var type="shell strain"/>
		</plotfile>
		<logfile>
			<node_data data="z">4</node_data>
		</logfile>
	</Output>
</febio_spec>
