<?xml version="1.0" encoding="ISO-8859-1"?>
<!--
Cantilever shell(quad8) is applied nodal force along z direction in dynamic analysis.
Front and back face of left edge is fixed, and right edge is applied nodal_load along z of 1e1 in t=01.
-->
<febio_spec version="4.0">
	<Module type="solid"/>
	<Control>
		<analysis>DYNAMIC</analysis>
		<time_steps>1000</time_steps>
		<step_size>0.01</step_size>
		<plot_zero_state>0</plot_zero_state>
		<plot_range>0,-1</plot_range>
		<plot_level>PLOT_MAJOR_ITRS</plot_level>
		<output_level>OUTPUT_MAJOR_ITRS</output_level>
		<plot_stride>1</plot_stride>
		<adaptor_re_solve>1</adaptor_re_solve>
		<time_stepper type="default">
			<max_retries>5</max_retries>
			<opt_iter>10</opt_iter>
			<dtmin>0.01</dtmin>
			<dtmax>0.1</dtmax>
			<aggressiveness>0</aggressiveness>
			<cutback>0.5</cutback>
			<dtforce>0</dtforce>
		</time_stepper>
		<solver type="solid">
			<symmetric_stiffness>symmetric</symmetric_stiffness>
			<equation_scheme>staggered</equation_scheme>
			<equation_order>default</equation_order>
			<optimize_bw>0</optimize_bw>
			<lstol>0.9</lstol>
			<lsmin>0.01</lsmin>
			<lsiter>5</lsiter>
			<max_refs>15</max_refs>
			<check_zero_diagonal>0</check_zero_diagonal>
			<zero_diagonal_tol>0</zero_diagonal_tol>
			<force_partition>0</force_partition>
			<reform_each_time_step>1</reform_each_time_step>
			<reform_augment>0</reform_augment>
			<diverge_reform>1</diverge_reform>
			<min_residual>1e-20</min_residual>
			<max_residual>0</max_residual>
			<dtol>0.001</dtol>
			<etol>0.01</etol>
			<rtol>0</rtol>
			<rhoi>-2</rhoi>
			<alpha>1</alpha>
			<beta>0.25</beta>
			<gamma>0.5</gamma>
			<logSolve>0</logSolve>
			<arc_length>0</arc_length>
			<arc_length_scale>0</arc_length_scale>
			<qn_method type="BFGS">
				<max_ups>0</max_ups>
				<max_buffer_size>0</max_buffer_size>
				<cycle_buffer>1</cycle_buffer>
				<cmax>100000</cmax>
			</qn_method>
		</solver>
	</Control>
	<Globals>
		<Constants>
			<T>293</T>
			<R>0.008314</R>
			<Fc>0.0965</Fc>
		</Constants>
	</Globals>
	<Material>
		<material id="1" name="shell2" type="neo-Hookean">
			<density>1</density>
			<E>1e+09</E>
			<v>0.3</v>
		</material>
	</Material>
	<Mesh>
		<Nodes name="Object01">
			<node id="1">-10,-1,0</node>
			<node id="2">-10,0,0</node>
			<node id="3">-10,1,0</node>
			<node id="4">-9,-1,0</node>
			<node id="5">-9,0,0</node>
			<node id="6">-9,1,0</node>
			<node id="7">-8,-1,0</node>
			<node id="8">-8,0,0</node>
			<node id="9">-8,1,0</node>
			<node id="10">-7,-1,0</node>
			<node id="11">-7,0,0</node>
			<node id="12">-7,1,0</node>
			<node id="13">-6,-1,0</node>
			<node id="14">-6,0,0</node>
			<node id="15">-6,1,0</node>
			<node id="16">-5,-1,0</node>
			<node id="17">-5,0,0</node>
			<node id="18">-5,1,0</node>
			<node id="19">-4,-1,0</node>
			<node id="20">-4,0,0</node>
<!-- ... 145 like lines cut -->
		</Nodes>
		<Elements type="quad8" name="Part3">
			<elem id="1">1,4,5,2,64,69,66,65</elem>
			<elem id="2">2,5,6,3,66,71,68,67</elem>
			<elem id="3">4,7,8,5,70,74,72,69</elem>
			<elem id="4">5,8,9,6,72,76,73,71</elem>
			<elem id="5">7,10,11,8,75,79,77,74</elem>
			<elem id="6">8,11,12,9,77,81,78,76</elem>
			<elem id="7">10,13,14,11,80,84,82,79</elem>
			<elem id="8">11,14,15,12,82,86,83,81</elem>
			<elem id="9">13,16,17,14,85,89,87,84</elem>
			<elem id="10">14,17,18,15,87,91,88,86</elem>
			<elem id="11">16,19,20,17,90,94,92,89</elem>
			<elem id="12">17,20,21,18,92,96,93,91</elem>
			<elem id="13">19,22,23,20,95,99,97,94</elem>
			<elem id="14">20,23,24,21,97,101,98,96</elem>
			<elem id="15">22,25,26,23,100,104,102,99</elem>
			<elem id="16">23,26,27,24,102,106,103,101</elem>
			<elem id="17">25,28,29,26,105,109,107,104</elem>
			<elem id="18">26,29,30,27,107,111,108,106</elem>
			<elem id="19">28,31,32,29,110,114,112,109</elem>
			<elem id="20">29,32,33,30,112,116,113,111</elem>
<!-- ... 20 like lines cut -->
		</Elements>
		<NodeSet name="patch-x">
			1, 2, 3, 65, 67
		</NodeSet>
		<NodeSet name="patchz">
			1, 2, 3, 4, 5, 6, 7, 8,
			9, 10, 11, 12, 13, 14, 15, 16,
			17, 18, 19, 20, 21, 22, 23, 24,
			25, 26, 27, 28, 29, 30, 31, 32,
			33, 34, 35, 36, 37, 38, 39, 40,
			41, 42, 43, 44, 45, 46, 47, 48,
			49, 50, 51, 52, 53, 54, 55, 56,
			57, 58, 59, 60, 61, 62, 63, 64,
			65, 66, 67, 68, 69, 70, 71, 72,
			73, 74, 75, 76, 77, 78, 79, 80,
			81, 82, 83, 84, 85, 86, 87, 88,
			89, 90, 91, 92, 93, 94, 95, 96,
			97, 98, 99, 100, 101, 102, 103, 104,
			105, 106, 107, 108, 109, 110, 111, 112,
			113, 114, 115, 116, 117, 118, 119, 120,
			121, 122, 123, 124, 125, 126, 127, 128,
			129, 130, 131, 132, 133, 134, 135, 136,
			137, 138, 139, 140, 141, 142, 143, 144,
			145, 146, 147, 148, 149, 150, 151, 152,
			153, 154, 155, 156, 157, 158, 159, 160,
			161, 162, 163, 164, 165
		</NodeSet>
		<NodeSet name="ForceNodeset01">
			61, 62, 63, 164, 165
		</NodeSet>
		<NodeSet name="unnamed_set01">
			4
		</NodeSet>
	</Mesh>
	<MeshDomains>
		<ShellDomain name="Part3" mat="shell2">
			<shell_thickness>0</shell_thickness>
		</ShellDomain>
	</MeshDomains>
	<MeshData>
		<ElementData type="shell thickness" elem_set="Part3">
			<e lid="1">0.01,0.01,0.01,0.01,0.01,0.01,0.01,0.01</e>
			<e lid="2">0.01,0.01,0.01,0.01,0.01,0.01,0.01,0.01</e>
			<e lid="3">0.01,0.01,0.01,0.01,0.01,0.01,0.01,0.01</e>
			<e lid="4">0.01,0.01,0.01,0.01,0.01,0.01,0.01,0.01</e>
			<e lid="5">0.01,0.01,0.01,0.01,0.01,0.01,0.01,0.01</e>
			<e lid="6">0.01,0.01,0.01,0.01,0.01,0.01,0.01,0.01</e>
			<e lid="7">0.01,0.01,0.01,0.01,0.01,0.01,0.01,0.01</e>
			<e lid="8">0.01,0.01,0.01,0.01,0.01,0.01,0.01,0.01</e>
			<e lid="9">0.01,0.01,0.01,0.01,0.01,0.01,0.01,0.01</e>
			<e lid="10">0.01,0.01,0.01,0.01,0.01,0.01,0.01,0.01</e>
			<e lid="11">0.01,0.01,0.01,0.01,0.01,0.01,0.01,0.01</e>
			<e lid="12">0.01,0.01,0.01,0.01,0.01,0.01,0.01,0.01</e>
			<e lid="13">0.01,0.01,0.01,0.01,0.01,0.01,0.01,0.01</e>
			<e lid="14">0.01,0.01,0.01,0.01,0.01,0.01,0.01,0.01</e>
			<e lid="15">0.01,0.01,0.01,0.01,0.01,0.01,0.01,0.01</e>
			<e lid="16">0.01,0.01,0.01,0.01,0.01,0.01,0.01,0.01</e>
			<e lid="17">0.01,0.01,0.01,0.01,0.01,0.01,0.01,0.01</e>
			<e lid="18">0.01,0.01,0.01,0.01,0.01,0.01,0.01,0.01</e>
			<e lid="19">0.01,0.01,0.01,0.01,0.01,0.01,0.01,0.01</e>
			<e lid="20">0.01,0.01,0.01,0.01,0.01,0.01,0.01,0.01</e>
<!-- ... 20 like lines cut -->
		</ElementData>
	</MeshData>
	<Boundary>
		<bc name="FixedDisplacement01" node_set="patch-x" type="zero displacement">
			<x_dof>1</x_dof>
			<y_dof>1</y_dof>
			<z_dof>1</z_dof>
		</bc>
		<bc name="FixedShellDisplacement01" node_set="patch-x" type="zero shell displacement">
			<sx_dof>1</sx_dof>
			<sy_dof>1</sy_dof>
			<sz_dof>1</sz_dof>
		</bc>
		<bc name="FixedDisplacement02" node_set="patchz" type="zero displacement">
			<x_dof>0</x_dof>
			<y_dof>1</y_dof>
			<z_dof>0</z_dof>
		</bc>
	</Boundary>
	<Loads>
		<nodal_load name="ForceLoad01" node_set="ForceNodeset01" type="nodal_force">
			<relative>0</relative>
			<value lc="1">0,0,1</value>
			<shell_bottom>0</shell_bottom>
		</nodal_load>
	</Loads>
	<LoadData>
		<load_controller id="1" name="LC1" type="loadcurve">
			<interpolate>STEP</interpolate>
			<extend>CONSTANT</extend>
			<points>
				<pt>0,0.1</pt>
				<pt>1,0.1</pt>
				<pt>10,0</pt>
			</points>
		</load_controller>
	</LoadData>
	<Output>
		<plotfile type="febio">
			<var type="displacement"/>
			<var type="relative volume"/>
			<var type="shell director"/>
			<var type="Lagrange strain"/>
			<var type="stress"/>
		</plotfile>
	</Output>
</febio_spec>
