<?xml version="1.0" encoding="ISO-8859-1"?>
<!--
sh01 with EAS shells
-->
<febio_spec version="4.0">
	<Module type="solid"/>
	<Control>
		<analysis>STATIC</analysis>
		<time_steps>10</time_steps>
		<step_size>0.1</step_size>
		<plot_zero_state>0</plot_zero_state>
		<plot_range>0,-1</plot_range>
		<plot_level>PLOT_MAJOR_ITRS</plot_level>
		<output_level>OUTPUT_MAJOR_ITRS</output_level>
		<plot_stride>1</plot_stride>
		<adaptor_re_solve>1</adaptor_re_solve>
		<time_stepper type="default">
			<max_retries>5</max_retries>
			<opt_iter>10</opt_iter>
			<dtmin>0.01</dtmin>
			<dtmax>0.1</dtmax>
			<aggressiveness>0</aggressiveness>
			<cutback>0.5</cutback>
			<dtforce>0</dtforce>
		</time_stepper>
		<solver type="solid">
			<symmetric_stiffness>symmetric</symmetric_stiffness>
			<equation_scheme>staggered</equation_scheme>
			<equation_order>default</equation_order>
			<optimize_bw>0</optimize_bw>
			<lstol>0.9</lstol>
			<lsmin>0.01</lsmin>
			<lsiter>5</lsiter>
			<max_refs>15</max_refs>
			<check_zero_diagonal>0</check_zero_diagonal>
			<zero_diagonal_tol>0</zero_diagonal_tol>
			<force_partition>0</force_partition>
			<reform_each_time_step>1</reform_each_time_step>
			<reform_augment>0</reform_augment>
			<diverge_reform>1</diverge_reform>
			<min_residual>1e-20</min_residual>
			<max_residual>0</max_residual>
			<dtol>0.001</dtol>
			<etol>0.01</etol>
			<rtol>0</rtol>
			<rhoi>0</rhoi>
			<alpha>1</alpha>
			<beta>0.25</beta>
			<gamma>0.5</gamma>
			<logSolve>0</logSolve>
			<arc_length>0</arc_length>
			<arc_length_scale>0</arc_length_scale>
			<qn_method type="BFGS">
				<max_ups>10</max_ups>
				<max_buffer_size>0</max_buffer_size>
				<cycle_buffer>1</cycle_buffer>
				<cmax>100000</cmax>
			</qn_method>
		</solver>
	</Control>
	<Globals>
		<Constants>
			<T>0</T>
			<R>0</R>
			<Fc>0</Fc>
		</Constants>
	</Globals>
	<Material>
		<material id="1" name="Material1" type="rigid body">
			<density>1</density>
			<E>1</E>
			<v>0</v>
			<center_of_mass>0,0,0</center_of_mass>
		</material>
		<material id="2" name="Material2" type="neo-Hookean">
			<density>1</density>
			<E>1</E>
			<v>0.3</v>
		</material>
	</Material>
	<Mesh>
		<Nodes name="MergedObject1">
			<node id="1">-0.5,-0.5,0</node>
			<node id="2">-0.5,-0.4,0</node>
			<node id="3">-0.5,-0.3,0</node>
			<node id="4">-0.5,-0.2,0</node>
			<node id="5">-0.5,-0.1,0</node>
			<node id="6">-0.5,0,0</node>
			<node id="7">-0.5,0.1,0</node>
			<node id="8">-0.5,0.2,0</node>
			<node id="9">-0.5,0.3,0</node>
			<node id="10">-0.5,0.4,0</node>
			<node id="11">-0.5,0.5,0</node>
			<node id="12">-0.4,-0.5,0</node>
			<node id="13">-0.4,-0.4,0</node>
			<node id="14">-0.4,-0.3,0</node>
			<node id="15">-0.4,-0.2,0</node>
			<node id="16">-0.4,-0.1,0</node>
			<node id="17">-0.4,0,0</node>
			<node id="18">-0.4,0.1,0</node>
			<node id="19">-0.4,0.2,0</node>
			<node id="20">-0.4,0.3,0</node>
<!-- ... 119 like lines cut -->
		</Nodes>
		<Elements type="quad4" name="Part1">
			<elem id="1">1,12,13,2</elem>
			<elem id="2">2,13,14,3</elem>
			<elem id="3">3,14,15,4</elem>
			<elem id="4">4,15,16,5</elem>
			<elem id="5">5,16,17,6</elem>
			<elem id="6">6,17,18,7</elem>
			<elem id="7">7,18,19,8</elem>
			<elem id="8">8,19,20,9</elem>
			<elem id="9">9,20,21,10</elem>
			<elem id="10">10,21,22,11</elem>
			<elem id="11">12,23,24,13</elem>
			<elem id="12">13,24,25,14</elem>
			<elem id="13">14,25,26,15</elem>
			<elem id="14">15,26,27,16</elem>
			<elem id="15">16,27,28,17</elem>
			<elem id="16">17,28,29,18</elem>
			<elem id="17">18,29,30,19</elem>
			<elem id="18">19,30,31,20</elem>
			<elem id="19">20,31,32,21</elem>
			<elem id="20">21,32,33,22</elem>
<!-- ... 80 like lines cut -->
		</Elements>
		<Elements type="hex8" name="Part3">
			<elem id="101">118,58,59,49,119,126,128,121</elem>
			<elem id="102">119,126,128,121,120,127,129,122</elem>
			<elem id="103">49,59,60,123,121,128,130,124</elem>
			<elem id="104">121,128,130,124,122,129,131,125</elem>
			<elem id="105">58,132,69,59,126,133,135,128</elem>
			<elem id="106">126,133,135,128,127,134,136,129</elem>
			<elem id="107">59,69,137,60,128,135,138,130</elem>
			<elem id="108">128,135,138,130,129,136,139,131</elem>
		</Elements>
		<NodeSet name="FixedDisplacement1">
			1, 2, 3, 4, 5, 6, 7, 8,
			9, 10, 11, 12, 22, 23, 33, 34,
			44, 45, 53, 54, 64, 65, 73, 74,
			84, 85, 95, 96, 106, 107, 108, 109,
			110, 111, 112, 113, 114, 115, 116, 117
		</NodeSet>
		<NodeSet name="set01">
			59
		</NodeSet>
		<Surface name="PressureLoad1">
			<quad4 id="1">1,12,13,2</quad4>
			<quad4 id="2">2,13,14,3</quad4>
			<quad4 id="3">3,14,15,4</quad4>
			<quad4 id="4">4,15,16,5</quad4>
			<quad4 id="5">5,16,17,6</quad4>
			<quad4 id="6">6,17,18,7</quad4>
			<quad4 id="7">7,18,19,8</quad4>
			<quad4 id="8">8,19,20,9</quad4>
			<quad4 id="9">9,20,21,10</quad4>
			<quad4 id="10">10,21,22,11</quad4>
			<quad4 id="11">12,23,24,13</quad4>
			<quad4 id="12">13,24,25,14</quad4>
			<quad4 id="13">14,25,26,15</quad4>
			<quad4 id="14">15,26,27,16</quad4>
			<quad4 id="15">16,27,28,17</quad4>
			<quad4 id="16">17,28,29,18</quad4>
			<quad4 id="17">18,29,30,19</quad4>
			<quad4 id="18">19,30,31,20</quad4>
			<quad4 id="19">20,31,32,21</quad4>
			<quad4 id="20">21,32,33,22</quad4>
<!-- ... 80 like lines cut -->
		</Surface>
	</Mesh>
	<MeshDomains>
		<ShellDomain name="Part1" mat="Material2" type="elastic-shell">
			<shell_thickness>0</shell_thickness>
			<shell_normal_nodal>1</shell_normal_nodal>
		</ShellDomain>
		<SolidDomain name="Part3" mat="Material1"/>
	</MeshDomains>
	<MeshData>
		<ElementData type="shell thickness" elem_set="Part1">
			<e lid="1">0.01,0.01,0.01,0.01</e>
			<e lid="2">0.01,0.01,0.01,0.01</e>
			<e lid="3">0.01,0.01,0.01,0.01</e>
			<e lid="4">0.01,0.01,0.01,0.01</e>
			<e lid="5">0.01,0.01,0.01,0.01</e>
			<e lid="6">0.01,0.01,0.01,0.01</e>
			<e lid="7">0.01,0.01,0.01,0.01</e>
			<e lid="8">0.01,0.01,0.01,0.01</e>
			<e lid="9">0.01,0.01,0.01,0.01</e>
			<e lid="10">0.01,0.01,0.01,0.01</e>
			<e lid="11">0.01,0.01,0.01,0.01</e>
			<e lid="12">0.01,0.01,0.01,0.01</e>
			<e lid="13">0.01,0.01,0.01,0.01</e>
			<e lid="14">0.01,0.01,0.01,0.01</e>
			<e lid="15">0.01,0.01,0.01,0.01</e>
			<e lid="16">0.01,0.01,0.01,0.01</e>
			<e lid="17">0.01,0.01,0.01,0.01</e>
			<e lid="18">0.01,0.01,0.01,0.01</e>
			<e lid="19">0.01,0.01,0.01,0.01</e>
			<e lid="20">0.01,0.01,0.01,0.01</e>
<!-- ... 80 like lines cut -->
		</ElementData>
	</MeshData>
	<Boundary>
		<bc name="FixedDisplacement1" node_set="FixedDisplacement1" type="zero displacement">
			<x_dof>1</x_dof>
			<y_dof>1</y_dof>
			<z_dof>1</z_dof>
		</bc>
	</Boundary>
	<Loads>
		<surface_load name="PressureLoad1" surface="PressureLoad1" type="pressure">
			<pressure lc="1">0.001</pressure>
			<symmetric_stiffness>1</symmetric_stiffness>
			<linear>0</linear>
			<shell_bottom>0</shell_bottom>
		</surface_load>
	</Loads>
	<LoadData>
		<load_controller id="1" name="LC1" type="loadcurve">
			<interpolate>SMOOTH</interpolate>
			<extend>CONSTANT</extend>
			<points>
				<pt>0,0</pt>
				<pt>1,1</pt>
			</points>
		</load_controller>
	</LoadData>
	<Output>
		<plotfile type="febio">
			<var type="displacement"/>
			<var type="relative volume"/>
			<var type="stress"/>
		</plotfile>
	</Output>
</febio_spec>
