<?xml version="1.0" encoding="ISO-8859-1"?>
<!--
This model implements shell nodal loads in a plane stress analysis.  To enforce zero normal stress in accordance with the assumptions of plane stress analyses, an orthotropic elastic material is used to simulate transverse isotropy, with a non-zero Poisson's ratio in the plane of the shell and zero Poisson's ratios in the planes orthogonal to the shell.
-->
<febio_spec version="3.0">
	<Module type="solid"/>
	<Control>
		<analysis>STATIC</analysis>
		<time_steps>10</time_steps>
		<step_size>0.1</step_size>
		<solver>
			<max_refs>15</max_refs>
			<max_ups>10</max_ups>
			<diverge_reform>1</diverge_reform>
			<reform_each_time_step>1</reform_each_time_step>
			<dtol>0.001</dtol>
			<etol>0.01</etol>
			<rtol>0</rtol>
			<lstol>0.9</lstol>
			<min_residual>1e-20</min_residual>
			<qnmethod>BFGS</qnmethod>
			<rhoi>0</rhoi>
		</solver>
		<time_stepper>
			<dtmin>0.01</dtmin>
			<dtmax>0.1</dtmax>
			<max_retries>5</max_retries>
			<opt_iter>10</opt_iter>
		</time_stepper>
	</Control>
	<Globals>
		<Constants>
			<T>0</T>
			<R>0</R>
			<Fc>0</Fc>
		</Constants>
	</Globals>
	<Material>
		<material id="1" name="Material2" type="orthotropic elastic">
			<density>1</density>
			<E1>1000000</E1>
			<E2>1000000</E2>
			<E3>1000000</E3>
			<G12>384615</G12>
			<G23>500000</G23>
			<G31>500000</G31>
			<v12>0.3</v12>
			<v23>0</v23>
			<v31>0</v31>
		</material>
	</Material>
	<Mesh>
		<Nodes name="Object1">
			<node id="1">0,0,0</node>
			<node id="2">0.353553391,0,0</node>
			<node id="3">0.353553391,0.353553391,0</node>
			<node id="4">0,0.353553391,0</node>
			<node id="5">-0.353553391,0.353553391,0</node>
			<node id="6">-0.353553391,0,0</node>
			<node id="7">-0.353553391,-0.353553391,0</node>
			<node id="8">0,-0.353553391,0</node>
			<node id="9">0.353553391,-0.353553391,0</node>
			<node id="10">1,0,0</node>
			<node id="11">0.707106781,0.707106781,0</node>
			<node id="12">0,1,0</node>
			<node id="13">-0.707106781,0.707106781,0</node>
			<node id="14">-1,0,0</node>
			<node id="15">-0.707106781,-0.707106781,0</node>
			<node id="16">0,-1,0</node>
			<node id="17">0.707106781,-0.707106781,0</node>
			<node id="18">0.0589255651,0,0</node>
			<node id="19">0.11785113,0,0</node>
			<node id="20">0.176776695,0,0</node>
<!-- ... 437 like lines cut -->
		</Nodes>
		<Elements type="quad4" name="Part1">
			<elem id="1">1,18,158,37</elem>
			<elem id="2">18,19,159,158</elem>
			<elem id="3">19,20,160,159</elem>
			<elem id="4">20,21,161,160</elem>
			<elem id="5">21,22,162,161</elem>
			<elem id="6">22,2,23,162</elem>
			<elem id="7">37,158,163,36</elem>
			<elem id="8">158,159,164,163</elem>
			<elem id="9">159,160,165,164</elem>
			<elem id="10">160,161,166,165</elem>
			<elem id="11">161,162,167,166</elem>
			<elem id="12">162,23,24,167</elem>
			<elem id="13">36,163,168,35</elem>
			<elem id="14">163,164,169,168</elem>
			<elem id="15">164,165,170,169</elem>
			<elem id="16">165,166,171,170</elem>
			<elem id="17">166,167,172,171</elem>
			<elem id="18">167,24,25,172</elem>
			<elem id="19">35,168,173,34</elem>
			<elem id="20">168,169,174,173</elem>
<!-- ... 412 like lines cut -->
		</Elements>
		<NodeSet name="FixedShellDisplacement2">
			<n id="12"/>
			<n id="13"/>
			<n id="14"/>
			<n id="15"/>
			<n id="16"/>
			<n id="103"/>
			<n id="104"/>
			<n id="105"/>
			<n id="106"/>
			<n id="107"/>
			<n id="113"/>
			<n id="114"/>
			<n id="115"/>
			<n id="116"/>
			<n id="117"/>
			<n id="123"/>
			<n id="124"/>
			<n id="125"/>
			<n id="126"/>
			<n id="127"/>
<!-- ... 5 like lines cut -->
		</NodeSet>
		<NodeSet name="FixedDisplacement1">
			<n id="12"/>
			<n id="13"/>
			<n id="14"/>
			<n id="15"/>
			<n id="16"/>
			<n id="103"/>
			<n id="104"/>
			<n id="105"/>
			<n id="106"/>
			<n id="107"/>
			<n id="113"/>
			<n id="114"/>
			<n id="115"/>
			<n id="116"/>
			<n id="117"/>
			<n id="123"/>
			<n id="124"/>
			<n id="125"/>
			<n id="126"/>
			<n id="127"/>
<!-- ... 5 like lines cut -->
		</NodeSet>
		<NodeSet name="NodalLoad1">
			<n id="10"/>
			<n id="11"/>
			<n id="12"/>
			<n id="16"/>
			<n id="17"/>
			<n id="83"/>
			<n id="84"/>
			<n id="85"/>
			<n id="86"/>
			<n id="87"/>
			<n id="93"/>
			<n id="94"/>
			<n id="95"/>
			<n id="96"/>
			<n id="97"/>
			<n id="143"/>
			<n id="144"/>
			<n id="145"/>
			<n id="146"/>
			<n id="147"/>
<!-- ... 5 like lines cut -->
		</NodeSet>
		<NodeSet name="NodalLoad2">
			<n id="10"/>
			<n id="11"/>
			<n id="12"/>
			<n id="16"/>
			<n id="17"/>
			<n id="83"/>
			<n id="84"/>
			<n id="85"/>
			<n id="86"/>
			<n id="87"/>
			<n id="93"/>
			<n id="94"/>
			<n id="95"/>
			<n id="96"/>
			<n id="97"/>
			<n id="143"/>
			<n id="144"/>
			<n id="145"/>
			<n id="146"/>
			<n id="147"/>
<!-- ... 5 like lines cut -->
		</NodeSet>
		<Surface name="FixedShellDisplacement1">
			<quad4 id="1">1,18,158,37</quad4>
			<quad4 id="2">18,19,159,158</quad4>
			<quad4 id="3">19,20,160,159</quad4>
			<quad4 id="4">20,21,161,160</quad4>
			<quad4 id="5">21,22,162,161</quad4>
			<quad4 id="6">22,2,23,162</quad4>
			<quad4 id="7">37,158,163,36</quad4>
			<quad4 id="8">158,159,164,163</quad4>
			<quad4 id="9">159,160,165,164</quad4>
			<quad4 id="10">160,161,166,165</quad4>
			<quad4 id="11">161,162,167,166</quad4>
			<quad4 id="12">162,23,24,167</quad4>
			<quad4 id="13">36,163,168,35</quad4>
			<quad4 id="14">163,164,169,168</quad4>
			<quad4 id="15">164,165,170,169</quad4>
			<quad4 id="16">165,166,171,170</quad4>
			<quad4 id="17">166,167,172,171</quad4>
			<quad4 id="18">167,24,25,172</quad4>
			<quad4 id="19">35,168,173,34</quad4>
			<quad4 id="20">168,169,174,173</quad4>
<!-- ... 412 like lines cut -->
		</Surface>
	</Mesh>
	<MeshDomains>
		<ShellDomain name="Part1" mat="Material2">
			<shell_normal_nodal>1</shell_normal_nodal>
		</ShellDomain>
	</MeshDomains>
	<MeshData>
		<ElementData var="shell thickness" elem_set="Part1">
			<e lid="1">0.01,0.01,0.01,0.01</e>
			<e lid="2">0.01,0.01,0.01,0.01</e>
			<e lid="3">0.01,0.01,0.01,0.01</e>
			<e lid="4">0.01,0.01,0.01,0.01</e>
			<e lid="5">0.01,0.01,0.01,0.01</e>
			<e lid="6">0.01,0.01,0.01,0.01</e>
			<e lid="7">0.01,0.01,0.01,0.01</e>
			<e lid="8">0.01,0.01,0.01,0.01</e>
			<e lid="9">0.01,0.01,0.01,0.01</e>
			<e lid="10">0.01,0.01,0.01,0.01</e>
			<e lid="11">0.01,0.01,0.01,0.01</e>
			<e lid="12">0.01,0.01,0.01,0.01</e>
			<e lid="13">0.01,0.01,0.01,0.01</e>
			<e lid="14">0.01,0.01,0.01,0.01</e>
			<e lid="15">0.01,0.01,0.01,0.01</e>
			<e lid="16">0.01,0.01,0.01,0.01</e>
			<e lid="17">0.01,0.01,0.01,0.01</e>
			<e lid="18">0.01,0.01,0.01,0.01</e>
			<e lid="19">0.01,0.01,0.01,0.01</e>
			<e lid="20">0.01,0.01,0.01,0.01</e>
<!-- ... 412 like lines cut -->
		</ElementData>
	</MeshData>
	<Boundary>
		<bc name="FixedShellDisplacement1" type="fix" node_set="@surface:FixedShellDisplacement1">
			<dofs>sz</dofs>
		</bc>
		<bc name="FixedShellDisplacement2" type="fix" node_set="FixedShellDisplacement2">
			<dofs>sx,sy</dofs>
		</bc>
		<bc name="FixedDisplacement1" type="fix" node_set="FixedDisplacement1">
			<dofs>x,y</dofs>
		</bc>
	</Boundary>
	<Loads>
		<nodal_load name="NodalLoad1" type="nodal_load" node_set="NodalLoad1">
			<dof>sx</dof>
			<scale lc="1">-1</scale>
		</nodal_load>
		<nodal_load name="NodalLoad2" type="nodal_load" node_set="NodalLoad2">
			<dof>x</dof>
			<scale lc="2">-1</scale>
		</nodal_load>
	</Loads>
	<LoadData>
		<load_controller id="1" type="loadcurve">
			<interpolate>SMOOTH</interpolate>
			<points>
				<point>0,0</point>
				<point>1,1</point>
			</points>
		</load_controller>
		<load_controller id="2" type="loadcurve">
			<interpolate>SMOOTH</interpolate>
			<points>
				<point>0,0</point>
				<point>1,1</point>
			</points>
		</load_controller>
	</LoadData>
	<Output>
		<plotfile type="febio">
			<var type="displacement"/>
			<var type="reaction forces"/>
			<var type="relative volume"/>
			<var type="shell director"/>
			<var type="shell relative volume"/>
			<var type="shell strain"/>
			<var type="shell thickness"/>
			<var type="stress"/>
		</plotfile>
	</Output>
</febio_spec>
