<?xml version="1.0" encoding="ISO-8859-1"?>
<febio_spec version="4.0">
	<Module type="solid">
		<units>mm-N-s</units>
	</Module>
	<Control>
		<analysis>STATIC</analysis>
		<time_steps>1</time_steps>
		<step_size>1</step_size>
		<plot_zero_state>0</plot_zero_state>
		<plot_range>0,-1</plot_range>
		<plot_level>PLOT_MAJOR_ITRS</plot_level>
		<output_level>OUTPUT_MAJOR_ITRS</output_level>
		<plot_stride>1</plot_stride>
		<output_stride>1</output_stride>
		<adaptor_re_solve>1</adaptor_re_solve>
		<time_stepper type="default">
			<max_retries>5</max_retries>
			<opt_iter>11</opt_iter>
			<dtmin>0</dtmin>
			<dtmax>1</dtmax>
			<aggressiveness>0</aggressiveness>
			<cutback>0.5</cutback>
			<dtforce>0</dtforce>
		</time_stepper>
		<solver type="solid">
			<symmetric_stiffness>preferred</symmetric_stiffness>
			<equation_scheme>staggered</equation_scheme>
			<equation_order>default</equation_order>
			<optimize_bw>0</optimize_bw>
			<lstol>0.9</lstol>
			<lsmin>0.01</lsmin>
			<lsiter>5</lsiter>
			<ls_check_jacobians>0</ls_check_jacobians>
			<max_refs>15</max_refs>
			<check_zero_diagonal>0</check_zero_diagonal>
			<zero_diagonal_tol>0</zero_diagonal_tol>
			<force_partition>0</force_partition>
			<reform_each_time_step>1</reform_each_time_step>
			<reform_augment>0</reform_augment>
			<diverge_reform>1</diverge_reform>
			<min_residual>1e-20</min_residual>
			<max_residual>0</max_residual>
			<dtol>0.001</dtol>
			<etol>0.01</etol>
			<rtol>0</rtol>
			<rhoi>-2</rhoi>
			<alpha>1</alpha>
			<beta>0.25</beta>
			<gamma>0.5</gamma>
			<logSolve>0</logSolve>
			<arc_length>0</arc_length>
			<arc_length_scale>0</arc_length_scale>
			<qn_method type="BFGS">
				<max_ups>10</max_ups>
				<max_buffer_size>0</max_buffer_size>
				<cycle_buffer>1</cycle_buffer>
				<cmax>100000</cmax>
			</qn_method>
		</solver>
	</Control>
	<Globals>
		<Constants>
			<T>0</T>
			<P>0</P>
			<R>8.31446e-06</R>
			<Fc>9.64853e-05</Fc>
		</Constants>
	</Globals>
	<Material>
		<material id="1" name="Alloy Steel" type="neo-Hookean">
			<density>1</density>
			<E>210000</E>
			<v>0.28</v>
		</material>
	</Material>
	<Mesh>
		<Nodes name="Object1">
			<node id="1">-2.5,-1,0</node>
			<node id="2">2.5,-1,0</node>
			<node id="3">2.5,1,0</node>
			<node id="4">-2.5,1,0</node>
			<node id="5">-2.4,-1,0</node>
			<node id="6">-2.3,-1,0</node>
			<node id="7">-2.2,-1,0</node>
			<node id="8">-2.1,-1,0</node>
			<node id="9">-2,-1,0</node>
			<node id="10">-1.9,-1,0</node>
			<node id="11">-1.8,-1,0</node>
			<node id="12">-1.7,-1,0</node>
			<node id="13">-1.6,-1,0</node>
			<node id="14">-1.5,-1,0</node>
			<node id="15">-1.4,-1,0</node>
			<node id="16">-1.3,-1,0</node>
			<node id="17">-1.2,-1,0</node>
			<node id="18">-1.1,-1,0</node>
			<node id="19">-1,-1,0</node>
			<node id="20">-0.9,-1,0</node>
<!-- ... 1051 like lines cut -->
		</Nodes>
		<Elements type="quad4" name="Part1">
			<elem id="1">1,5,141,140</elem>
			<elem id="2">5,6,142,141</elem>
			<elem id="3">6,7,143,142</elem>
			<elem id="4">7,8,144,143</elem>
			<elem id="5">8,9,145,144</elem>
			<elem id="6">9,10,146,145</elem>
			<elem id="7">10,11,147,146</elem>
			<elem id="8">11,12,148,147</elem>
			<elem id="9">12,13,149,148</elem>
			<elem id="10">13,14,150,149</elem>
			<elem id="11">14,15,151,150</elem>
			<elem id="12">15,16,152,151</elem>
			<elem id="13">16,17,153,152</elem>
			<elem id="14">17,18,154,153</elem>
			<elem id="15">18,19,155,154</elem>
			<elem id="16">19,20,156,155</elem>
			<elem id="17">20,21,157,156</elem>
			<elem id="18">21,22,158,157</elem>
			<elem id="19">22,23,159,158</elem>
			<elem id="20">23,24,160,159</elem>
<!-- ... 980 like lines cut -->
		</Elements>
		<Edge name="ZeroShellDisplacement1">
			<line2 id="1">4,122</line2>
			<line2 id="2">122,123</line2>
			<line2 id="3">123,124</line2>
			<line2 id="4">124,125</line2>
			<line2 id="5">125,126</line2>
			<line2 id="6">126,127</line2>
			<line2 id="7">127,128</line2>
			<line2 id="8">128,129</line2>
			<line2 id="9">129,130</line2>
			<line2 id="10">130,131</line2>
			<line2 id="11">131,132</line2>
			<line2 id="12">132,133</line2>
			<line2 id="13">133,134</line2>
			<line2 id="14">134,135</line2>
			<line2 id="15">135,136</line2>
			<line2 id="16">136,137</line2>
			<line2 id="17">137,138</line2>
			<line2 id="18">138,139</line2>
			<line2 id="19">139,140</line2>
			<line2 id="20">140,1</line2>
		</Edge>
		<Edge name="ZeroDisplacement2">
			<line2 id="1">4,122</line2>
			<line2 id="2">122,123</line2>
			<line2 id="3">123,124</line2>
			<line2 id="4">124,125</line2>
			<line2 id="5">125,126</line2>
			<line2 id="6">126,127</line2>
			<line2 id="7">127,128</line2>
			<line2 id="8">128,129</line2>
			<line2 id="9">129,130</line2>
			<line2 id="10">130,131</line2>
			<line2 id="11">131,132</line2>
			<line2 id="12">132,133</line2>
			<line2 id="13">133,134</line2>
			<line2 id="14">134,135</line2>
			<line2 id="15">135,136</line2>
			<line2 id="16">136,137</line2>
			<line2 id="17">137,138</line2>
			<line2 id="18">138,139</line2>
			<line2 id="19">139,140</line2>
			<line2 id="20">140,1</line2>
		</Edge>
		<Edge name="Nodal_force1">
			<line2 id="1">2,54</line2>
			<line2 id="2">54,55</line2>
			<line2 id="3">55,56</line2>
			<line2 id="4">56,57</line2>
			<line2 id="5">57,58</line2>
			<line2 id="6">58,59</line2>
			<line2 id="7">59,60</line2>
			<line2 id="8">60,61</line2>
			<line2 id="9">61,62</line2>
			<line2 id="10">62,63</line2>
			<line2 id="11">63,64</line2>
			<line2 id="12">64,65</line2>
			<line2 id="13">65,66</line2>
			<line2 id="14">66,67</line2>
			<line2 id="15">67,68</line2>
			<line2 id="16">68,69</line2>
			<line2 id="17">69,70</line2>
			<line2 id="18">70,71</line2>
			<line2 id="19">71,72</line2>
			<line2 id="20">72,3</line2>
		</Edge>
		<Edge name="Nodal_force2">
			<line2 id="1">2,54</line2>
			<line2 id="2">54,55</line2>
			<line2 id="3">55,56</line2>
			<line2 id="4">56,57</line2>
			<line2 id="5">57,58</line2>
			<line2 id="6">58,59</line2>
			<line2 id="7">59,60</line2>
			<line2 id="8">60,61</line2>
			<line2 id="9">61,62</line2>
			<line2 id="10">62,63</line2>
			<line2 id="11">63,64</line2>
			<line2 id="12">64,65</line2>
			<line2 id="13">65,66</line2>
			<line2 id="14">66,67</line2>
			<line2 id="15">67,68</line2>
			<line2 id="16">68,69</line2>
			<line2 id="17">69,70</line2>
			<line2 id="18">70,71</line2>
			<line2 id="19">71,72</line2>
			<line2 id="20">72,3</line2>
		</Edge>
	</Mesh>
	<MeshDomains>
		<ShellDomain name="Part1" mat="Alloy Steel">
			<shell_thickness>0</shell_thickness>
		</ShellDomain>
	</MeshDomains>
	<MeshData>
		<ElementData type="shell thickness" elem_set="Part1">
			<e lid="1">0.1,0.1,0.1,0.1</e>
			<e lid="2">0.1,0.1,0.1,0.1</e>
			<e lid="3">0.1,0.1,0.1,0.1</e>
			<e lid="4">0.1,0.1,0.1,0.1</e>
			<e lid="5">0.1,0.1,0.1,0.1</e>
			<e lid="6">0.1,0.1,0.1,0.1</e>
			<e lid="7">0.1,0.1,0.1,0.1</e>
			<e lid="8">0.1,0.1,0.1,0.1</e>
			<e lid="9">0.1,0.1,0.1,0.1</e>
			<e lid="10">0.1,0.1,0.1,0.1</e>
			<e lid="11">0.1,0.1,0.1,0.1</e>
			<e lid="12">0.1,0.1,0.1,0.1</e>
			<e lid="13">0.1,0.1,0.1,0.1</e>
			<e lid="14">0.1,0.1,0.1,0.1</e>
			<e lid="15">0.1,0.1,0.1,0.1</e>
			<e lid="16">0.1,0.1,0.1,0.1</e>
			<e lid="17">0.1,0.1,0.1,0.1</e>
			<e lid="18">0.1,0.1,0.1,0.1</e>
			<e lid="19">0.1,0.1,0.1,0.1</e>
			<e lid="20">0.1,0.1,0.1,0.1</e>
<!-- ... 980 like lines cut -->
		</ElementData>
	</MeshData>
	<Boundary>
		<bc name="ZeroShellDisplacement1" node_set="@edge:ZeroShellDisplacement1" type="zero shell displacement">
			<sx_dof>1</sx_dof>
			<sy_dof>1</sy_dof>
			<sz_dof>1</sz_dof>
		</bc>
		<bc name="ZeroDisplacement2" node_set="@edge:ZeroDisplacement2" type="zero displacement">
			<x_dof>1</x_dof>
			<y_dof>1</y_dof>
			<z_dof>1</z_dof>
		</bc>
	</Boundary>
	<Loads>
		<nodal_load name="Nodal_force1" node_set="@edge:Nodal_force1" type="nodal_force">
			<relative>0</relative>
			<value lc="1">10,0,0</value>
			<shell_bottom>0</shell_bottom>
		</nodal_load>
		<nodal_load name="Nodal_force2" node_set="@edge:Nodal_force2" type="nodal_force">
			<relative>0</relative>
			<value lc="1">10,0,0</value>
			<shell_bottom>1</shell_bottom>
		</nodal_load>
	</Loads>
	<LoadData>
		<load_controller id="1" name="LC1" type="loadcurve">
			<interpolate>LINEAR</interpolate>
			<extend>CONSTANT</extend>
			<points>
				<pt>0,0</pt>
				<pt>1,1</pt>
			</points>
		</load_controller>
	</LoadData>
	<Output>
		<plotfile type="febio">
			<var type="displacement"/>
			<var type="stress"/>
			<var type="relative volume"/>
			<var type="shell relative volume"/>
			<var type="shell thickness"/>
			<var type="shell director"/>
			<var type="nodal stress"/>
			<var type="shell strain"/>
			<var type="shell nodal stress"/>
			<var type="reaction forces"/>
		</plotfile>
	</Output>
</febio_spec>
