<?xml version="1.0" encoding="ISO-8859-1"?>
<febio_spec version="4.0">
	<Module type="solid">
		<units>mm-N-s</units>
	</Module>
	<Control>
		<analysis>STATIC</analysis>
		<time_steps>1</time_steps>
		<step_size>1</step_size>
		<plot_zero_state>0</plot_zero_state>
		<plot_range>0,-1</plot_range>
		<plot_level>PLOT_MAJOR_ITRS</plot_level>
		<output_level>OUTPUT_MAJOR_ITRS</output_level>
		<plot_stride>1</plot_stride>
		<output_stride>1</output_stride>
		<adaptor_re_solve>1</adaptor_re_solve>
		<time_stepper type="default">
			<max_retries>5</max_retries>
			<opt_iter>11</opt_iter>
			<dtmin>0</dtmin>
			<dtmax>1</dtmax>
			<aggressiveness>0</aggressiveness>
			<cutback>0.5</cutback>
			<dtforce>0</dtforce>
		</time_stepper>
		<solver type="solid">
			<symmetric_stiffness>preferred</symmetric_stiffness>
			<equation_scheme>staggered</equation_scheme>
			<equation_order>default</equation_order>
			<optimize_bw>0</optimize_bw>
			<lstol>0.9</lstol>
			<lsmin>0.01</lsmin>
			<lsiter>5</lsiter>
			<ls_check_jacobians>0</ls_check_jacobians>
			<max_refs>15</max_refs>
			<check_zero_diagonal>0</check_zero_diagonal>
			<zero_diagonal_tol>0</zero_diagonal_tol>
			<force_partition>0</force_partition>
			<reform_each_time_step>1</reform_each_time_step>
			<reform_augment>0</reform_augment>
			<diverge_reform>1</diverge_reform>
			<min_residual>1e-20</min_residual>
			<max_residual>0</max_residual>
			<dtol>0.001</dtol>
			<etol>0.01</etol>
			<rtol>0</rtol>
			<rhoi>-2</rhoi>
			<alpha>1</alpha>
			<beta>0.25</beta>
			<gamma>0.5</gamma>
			<logSolve>0</logSolve>
			<arc_length>0</arc_length>
			<arc_length_scale>0</arc_length_scale>
			<qn_method type="BFGS">
				<max_ups>10</max_ups>
				<max_buffer_size>0</max_buffer_size>
				<cycle_buffer>1</cycle_buffer>
				<cmax>100000</cmax>
			</qn_method>
		</solver>
	</Control>
	<Globals>
		<Constants>
			<T>0</T>
			<P>0</P>
			<R>8.31446e-06</R>
			<Fc>9.64853e-05</Fc>
		</Constants>
	</Globals>
	<Material>
		<material id="1" name="Alloy Steel" type="neo-Hookean">
			<density>1</density>
			<E>210000</E>
			<v>0.28</v>
		</material>
	</Material>
	<Mesh>
		<Nodes name="Part01">
			<node id="1">0,40,10</node>
			<node id="2">0,40,30</node>
			<node id="3">0,38.98832,10.05131</node>
			<node id="4">0,37.98701,10.2047</node>
			<node id="5">0,37.00637,10.45861</node>
			<node id="6">0,36.05644,10.81042</node>
			<node id="7">0,35.14698,11.25653</node>
			<node id="8">0,34.28732,11.79237</node>
			<node id="9">0,33.48628,12.41242</node>
			<node id="10">0,32.75207,13.11033</node>
			<node id="11">0,32.09224,13.87894</node>
			<node id="12">0,31.51356,14.71036</node>
			<node id="13">0,31.02195,15.59606</node>
			<node id="14">0,30.62248,16.52695</node>
			<node id="15">0,30.31923,17.49347</node>
			<node id="16">0,30.11532,18.48572</node>
			<node id="17">0,30.01283,19.49351</node>
			<node id="18">0,30.01283,20.50649</node>
			<node id="19">0,30.11532,21.51428</node>
			<node id="20">0,30.31923,22.50653</node>
<!-- ... 11965 like lines cut -->
		</Nodes>
		<Elements type="quad4" name="EB1">
			<elem id="5242">228,277,585,267</elem>
			<elem id="5243">277,276,586,585</elem>
			<elem id="5244">276,275,587,586</elem>
			<elem id="5245">275,274,588,587</elem>
			<elem id="5246">274,273,589,588</elem>
			<elem id="5247">273,272,590,589</elem>
			<elem id="5248">272,271,591,590</elem>
			<elem id="5249">271,270,592,591</elem>
			<elem id="5250">270,269,593,592</elem>
			<elem id="5251">269,268,594,593</elem>
			<elem id="5252">268,279,595,594</elem>
			<elem id="5253">279,280,596,595</elem>
			<elem id="5254">280,281,597,596</elem>
			<elem id="5255">281,282,598,597</elem>
			<elem id="5256">282,283,599,598</elem>
			<elem id="5257">283,284,600,599</elem>
			<elem id="5258">284,285,601,600</elem>
			<elem id="5259">285,286,602,601</elem>
			<elem id="5260">286,287,603,602</elem>
			<elem id="5261">287,288,604,603</elem>
<!-- ... 5747 like lines cut -->
		</Elements>
		<Elements type="quad4" name="Part4">
			<elem id="11009">6255,6270,6287,6286</elem>
			<elem id="11010">6270,6269,6288,6287</elem>
			<elem id="11011">6269,6268,6289,6288</elem>
			<elem id="11012">6268,6267,6290,6289</elem>
			<elem id="11013">6267,6266,6291,6290</elem>
			<elem id="11014">6266,6265,6292,6291</elem>
			<elem id="11015">6265,6264,6293,6292</elem>
			<elem id="11016">6264,6263,6294,6293</elem>
			<elem id="11017">6263,6262,6295,6294</elem>
			<elem id="11018">6262,6261,6296,6295</elem>
			<elem id="11019">6261,6260,6297,6296</elem>
			<elem id="11020">6260,6259,6298,6297</elem>
			<elem id="11021">6259,6258,6299,6298</elem>
			<elem id="11022">6258,6257,6300,6299</elem>
			<elem id="11023">6257,6256,6301,6300</elem>
			<elem id="11024">6256,6254,6302,6301</elem>
			<elem id="11025">6254,6285,6303,6302</elem>
			<elem id="11026">6285,6284,6304,6303</elem>
			<elem id="11027">6284,6283,6305,6304</elem>
			<elem id="11028">6283,6282,6306,6305</elem>
<!-- ... 192 like lines cut -->
		</Elements>
		<Elements type="quad4" name="Part5">
			<elem id="11221">6058,6073,6090,6089</elem>
			<elem id="11222">6073,6072,6091,6090</elem>
			<elem id="11223">6072,6071,6092,6091</elem>
			<elem id="11224">6071,6070,6093,6092</elem>
			<elem id="11225">6070,6069,6094,6093</elem>
			<elem id="11226">6069,6068,6095,6094</elem>
			<elem id="11227">6068,6067,6096,6095</elem>
			<elem id="11228">6067,6066,6097,6096</elem>
			<elem id="11229">6066,6065,6098,6097</elem>
			<elem id="11230">6065,6064,6099,6098</elem>
			<elem id="11231">6064,6063,6100,6099</elem>
			<elem id="11232">6063,6062,6101,6100</elem>
			<elem id="11233">6062,6061,6102,6101</elem>
			<elem id="11234">6061,6060,6103,6102</elem>
			<elem id="11235">6060,6059,6104,6103</elem>
			<elem id="11236">6059,6057,6105,6104</elem>
			<elem id="11237">6057,6088,6106,6105</elem>
			<elem id="11238">6088,6087,6107,6106</elem>
			<elem id="11239">6087,6086,6108,6107</elem>
			<elem id="11240">6086,6085,6109,6108</elem>
<!-- ... 192 like lines cut -->
		</Elements>
		<Elements type="quad4" name="Part6">
			<elem id="11433">6452,6467,6484,6483</elem>
			<elem id="11434">6467,6466,6485,6484</elem>
			<elem id="11435">6466,6465,6486,6485</elem>
			<elem id="11436">6465,6464,6487,6486</elem>
			<elem id="11437">6464,6463,6488,6487</elem>
			<elem id="11438">6463,6462,6489,6488</elem>
			<elem id="11439">6462,6461,6490,6489</elem>
			<elem id="11440">6461,6460,6491,6490</elem>
			<elem id="11441">6460,6459,6492,6491</elem>
			<elem id="11442">6459,6458,6493,6492</elem>
			<elem id="11443">6458,6457,6494,6493</elem>
			<elem id="11444">6457,6456,6495,6494</elem>
			<elem id="11445">6456,6455,6496,6495</elem>
			<elem id="11446">6455,6454,6497,6496</elem>
			<elem id="11447">6454,6453,6498,6497</elem>
			<elem id="11448">6453,6451,6499,6498</elem>
			<elem id="11449">6451,6482,6500,6499</elem>
			<elem id="11450">6482,6481,6501,6500</elem>
			<elem id="11451">6481,6480,6502,6501</elem>
			<elem id="11452">6480,6479,6503,6502</elem>
<!-- ... 185 like lines cut -->
		</Elements>
		<Elements type="quad4" name="Part7">
			<elem id="11638">6642,6657,6674,6673</elem>
			<elem id="11639">6657,6656,6675,6674</elem>
			<elem id="11640">6656,6655,6676,6675</elem>
			<elem id="11641">6655,6654,6677,6676</elem>
			<elem id="11642">6654,6653,6678,6677</elem>
			<elem id="11643">6653,6652,6679,6678</elem>
			<elem id="11644">6652,6651,6680,6679</elem>
			<elem id="11645">6651,6650,6681,6680</elem>
			<elem id="11646">6650,6649,6682,6681</elem>
			<elem id="11647">6649,6648,6683,6682</elem>
			<elem id="11648">6648,6647,6684,6683</elem>
			<elem id="11649">6647,6646,6685,6684</elem>
			<elem id="11650">6646,6645,6686,6685</elem>
			<elem id="11651">6645,6644,6687,6686</elem>
			<elem id="11652">6644,6643,6688,6687</elem>
			<elem id="11653">6643,6641,6689,6688</elem>
			<elem id="11654">6641,6672,6690,6689</elem>
			<elem id="11655">6672,6671,6691,6690</elem>
			<elem id="11656">6671,6670,6692,6691</elem>
			<elem id="11657">6670,6669,6693,6692</elem>
<!-- ... 189 like lines cut -->
		</Elements>
		<Elements type="quad4" name="Part8">
			<elem id="11847">218,6988,7118,229</elem>
			<elem id="11848">6988,6989,7119,7118</elem>
			<elem id="11849">6989,6990,7120,7119</elem>
			<elem id="11850">6990,6991,7121,7120</elem>
			<elem id="11851">6991,6992,7122,7121</elem>
			<elem id="11852">6992,6993,7123,7122</elem>
			<elem id="11853">6993,6994,7124,7123</elem>
			<elem id="11854">6994,6995,7125,7124</elem>
			<elem id="11855">6995,6996,7126,7125</elem>
			<elem id="11856">6996,6997,7127,7126</elem>
			<elem id="11857">6997,6998,7128,7127</elem>
			<elem id="11858">6998,6999,7129,7128</elem>
			<elem id="11859">6999,7000,7130,7129</elem>
			<elem id="11860">7000,7001,7131,7130</elem>
			<elem id="11861">7001,7002,7132,7131</elem>
			<elem id="11862">7002,7003,7133,7132</elem>
			<elem id="11863">7003,7004,7134,7133</elem>
			<elem id="11864">7004,7005,7135,7134</elem>
			<elem id="11865">7005,7006,7136,7135</elem>
			<elem id="11866">7006,7007,7137,7136</elem>
<!-- ... 5009 like lines cut -->
		</Elements>
		<Surface name="ZeroDisplacement2">
			<quad4 id="1">6255,6270,6287,6286</quad4>
			<quad4 id="2">6270,6269,6288,6287</quad4>
			<quad4 id="3">6269,6268,6289,6288</quad4>
			<quad4 id="4">6268,6267,6290,6289</quad4>
			<quad4 id="5">6267,6266,6291,6290</quad4>
			<quad4 id="6">6266,6265,6292,6291</quad4>
			<quad4 id="7">6265,6264,6293,6292</quad4>
			<quad4 id="8">6264,6263,6294,6293</quad4>
			<quad4 id="9">6263,6262,6295,6294</quad4>
			<quad4 id="10">6262,6261,6296,6295</quad4>
			<quad4 id="11">6261,6260,6297,6296</quad4>
			<quad4 id="12">6260,6259,6298,6297</quad4>
			<quad4 id="13">6259,6258,6299,6298</quad4>
			<quad4 id="14">6258,6257,6300,6299</quad4>
			<quad4 id="15">6257,6256,6301,6300</quad4>
			<quad4 id="16">6256,6254,6302,6301</quad4>
			<quad4 id="17">6254,6285,6303,6302</quad4>
			<quad4 id="18">6285,6284,6304,6303</quad4>
			<quad4 id="19">6284,6283,6305,6304</quad4>
			<quad4 id="20">6283,6282,6306,6305</quad4>
<!-- ... 818 like lines cut -->
		</Surface>
		<Surface name="BearingLoad1">
			<quad4 id="1">218,6988,7118,229</quad4>
			<quad4 id="2">6988,6989,7119,7118</quad4>
			<quad4 id="3">6989,6990,7120,7119</quad4>
			<quad4 id="4">6990,6991,7121,7120</quad4>
			<quad4 id="5">6991,6992,7122,7121</quad4>
			<quad4 id="6">6992,6993,7123,7122</quad4>
			<quad4 id="7">6993,6994,7124,7123</quad4>
			<quad4 id="8">6994,6995,7125,7124</quad4>
			<quad4 id="9">6995,6996,7126,7125</quad4>
			<quad4 id="10">6996,6997,7127,7126</quad4>
			<quad4 id="11">6997,6998,7128,7127</quad4>
			<quad4 id="12">6998,6999,7129,7128</quad4>
			<quad4 id="13">6999,7000,7130,7129</quad4>
			<quad4 id="14">7000,7001,7131,7130</quad4>
			<quad4 id="15">7001,7002,7132,7131</quad4>
			<quad4 id="16">7002,7003,7133,7132</quad4>
			<quad4 id="17">7003,7004,7134,7133</quad4>
			<quad4 id="18">7004,7005,7135,7134</quad4>
			<quad4 id="19">7005,7006,7136,7135</quad4>
			<quad4 id="20">7006,7007,7137,7136</quad4>
<!-- ... 5009 like lines cut -->
		</Surface>
	</Mesh>
	<MeshDomains>
		<ShellDomain name="EB1" mat="Alloy Steel" type="elastic-shell">
			<shell_thickness>4</shell_thickness>
			<shell_normal_nodal>1</shell_normal_nodal>
		</ShellDomain>
		<ShellDomain name="Part4" mat="Alloy Steel" type="elastic-shell">
			<shell_thickness>4</shell_thickness>
			<shell_normal_nodal>1</shell_normal_nodal>
		</ShellDomain>
		<ShellDomain name="Part5" mat="Alloy Steel" type="elastic-shell">
			<shell_thickness>4</shell_thickness>
			<shell_normal_nodal>1</shell_normal_nodal>
		</ShellDomain>
		<ShellDomain name="Part6" mat="Alloy Steel" type="elastic-shell">
			<shell_thickness>4</shell_thickness>
			<shell_normal_nodal>1</shell_normal_nodal>
		</ShellDomain>
		<ShellDomain name="Part7" mat="Alloy Steel" type="elastic-shell">
			<shell_thickness>4</shell_thickness>
			<shell_normal_nodal>1</shell_normal_nodal>
		</ShellDomain>
		<ShellDomain name="Part8" mat="Alloy Steel" type="elastic-shell">
			<shell_thickness>4</shell_thickness>
			<shell_normal_nodal>1</shell_normal_nodal>
		</ShellDomain>
	</MeshDomains>
	<MeshData>
		<ElementData type="shell thickness" elem_set="EB1">
			<e lid="1">4,4,4,4</e>
			<e lid="2">4,4,4,4</e>
			<e lid="3">4,4,4,4</e>
			<e lid="4">4,4,4,4</e>
			<e lid="5">4,4,4,4</e>
			<e lid="6">4,4,4,4</e>
			<e lid="7">4,4,4,4</e>
			<e lid="8">4,4,4,4</e>
			<e lid="9">4,4,4,4</e>
			<e lid="10">4,4,4,4</e>
			<e lid="11">4,4,4,4</e>
			<e lid="12">4,4,4,4</e>
			<e lid="13">4,4,4,4</e>
			<e lid="14">4,4,4,4</e>
			<e lid="15">4,4,4,4</e>
			<e lid="16">4,4,4,4</e>
			<e lid="17">4,4,4,4</e>
			<e lid="18">4,4,4,4</e>
			<e lid="19">4,4,4,4</e>
			<e lid="20">4,4,4,4</e>
<!-- ... 5747 like lines cut -->
		</ElementData>
		<ElementData type="shell thickness" elem_set="Part4">
			<e lid="1">4,4,4,4</e>
			<e lid="2">4,4,4,4</e>
			<e lid="3">4,4,4,4</e>
			<e lid="4">4,4,4,4</e>
			<e lid="5">4,4,4,4</e>
			<e lid="6">4,4,4,4</e>
			<e lid="7">4,4,4,4</e>
			<e lid="8">4,4,4,4</e>
			<e lid="9">4,4,4,4</e>
			<e lid="10">4,4,4,4</e>
			<e lid="11">4,4,4,4</e>
			<e lid="12">4,4,4,4</e>
			<e lid="13">4,4,4,4</e>
			<e lid="14">4,4,4,4</e>
			<e lid="15">4,4,4,4</e>
			<e lid="16">4,4,4,4</e>
			<e lid="17">4,4,4,4</e>
			<e lid="18">4,4,4,4</e>
			<e lid="19">4,4,4,4</e>
			<e lid="20">4,4,4,4</e>
<!-- ... 192 like lines cut -->
		</ElementData>
		<ElementData type="shell thickness" elem_set="Part5">
			<e lid="1">4,4,4,4</e>
			<e lid="2">4,4,4,4</e>
			<e lid="3">4,4,4,4</e>
			<e lid="4">4,4,4,4</e>
			<e lid="5">4,4,4,4</e>
			<e lid="6">4,4,4,4</e>
			<e lid="7">4,4,4,4</e>
			<e lid="8">4,4,4,4</e>
			<e lid="9">4,4,4,4</e>
			<e lid="10">4,4,4,4</e>
			<e lid="11">4,4,4,4</e>
			<e lid="12">4,4,4,4</e>
			<e lid="13">4,4,4,4</e>
			<e lid="14">4,4,4,4</e>
			<e lid="15">4,4,4,4</e>
			<e lid="16">4,4,4,4</e>
			<e lid="17">4,4,4,4</e>
			<e lid="18">4,4,4,4</e>
			<e lid="19">4,4,4,4</e>
			<e lid="20">4,4,4,4</e>
<!-- ... 192 like lines cut -->
		</ElementData>
		<ElementData type="shell thickness" elem_set="Part6">
			<e lid="1">4,4,4,4</e>
			<e lid="2">4,4,4,4</e>
			<e lid="3">4,4,4,4</e>
			<e lid="4">4,4,4,4</e>
			<e lid="5">4,4,4,4</e>
			<e lid="6">4,4,4,4</e>
			<e lid="7">4,4,4,4</e>
			<e lid="8">4,4,4,4</e>
			<e lid="9">4,4,4,4</e>
			<e lid="10">4,4,4,4</e>
			<e lid="11">4,4,4,4</e>
			<e lid="12">4,4,4,4</e>
			<e lid="13">4,4,4,4</e>
			<e lid="14">4,4,4,4</e>
			<e lid="15">4,4,4,4</e>
			<e lid="16">4,4,4,4</e>
			<e lid="17">4,4,4,4</e>
			<e lid="18">4,4,4,4</e>
			<e lid="19">4,4,4,4</e>
			<e lid="20">4,4,4,4</e>
<!-- ... 185 like lines cut -->
		</ElementData>
		<ElementData type="shell thickness" elem_set="Part7">
			<e lid="1">4,4,4,4</e>
			<e lid="2">4,4,4,4</e>
			<e lid="3">4,4,4,4</e>
			<e lid="4">4,4,4,4</e>
			<e lid="5">4,4,4,4</e>
			<e lid="6">4,4,4,4</e>
			<e lid="7">4,4,4,4</e>
			<e lid="8">4,4,4,4</e>
			<e lid="9">4,4,4,4</e>
			<e lid="10">4,4,4,4</e>
			<e lid="11">4,4,4,4</e>
			<e lid="12">4,4,4,4</e>
			<e lid="13">4,4,4,4</e>
			<e lid="14">4,4,4,4</e>
			<e lid="15">4,4,4,4</e>
			<e lid="16">4,4,4,4</e>
			<e lid="17">4,4,4,4</e>
			<e lid="18">4,4,4,4</e>
			<e lid="19">4,4,4,4</e>
			<e lid="20">4,4,4,4</e>
<!-- ... 189 like lines cut -->
		</ElementData>
		<ElementData type="shell thickness" elem_set="Part8">
			<e lid="1">4,4,4,4</e>
			<e lid="2">4,4,4,4</e>
			<e lid="3">4,4,4,4</e>
			<e lid="4">4,4,4,4</e>
			<e lid="5">4,4,4,4</e>
			<e lid="6">4,4,4,4</e>
			<e lid="7">4,4,4,4</e>
			<e lid="8">4,4,4,4</e>
			<e lid="9">4,4,4,4</e>
			<e lid="10">4,4,4,4</e>
			<e lid="11">4,4,4,4</e>
			<e lid="12">4,4,4,4</e>
			<e lid="13">4,4,4,4</e>
			<e lid="14">4,4,4,4</e>
			<e lid="15">4,4,4,4</e>
			<e lid="16">4,4,4,4</e>
			<e lid="17">4,4,4,4</e>
			<e lid="18">4,4,4,4</e>
			<e lid="19">4,4,4,4</e>
			<e lid="20">4,4,4,4</e>
<!-- ... 5009 like lines cut -->
		</ElementData>
	</MeshData>
	<Boundary>
		<bc name="ZeroDisplacement2" node_set="@surface:ZeroDisplacement2" type="zero displacement">
			<x_dof>1</x_dof>
			<y_dof>1</y_dof>
			<z_dof>1</z_dof>
		</bc>
	</Boundary>
	<Loads>
		<surface_load name="BearingLoad1" surface="BearingLoad1" type="bearing load">
			<scale lc="1">1</scale>
			<force>0,-100,0</force>
			<symmetric_stiffness>1</symmetric_stiffness>
			<linear>0</linear>
			<shell_bottom>0</shell_bottom>
			<profile>0</profile>
		</surface_load>
	</Loads>
	<LoadData>
		<load_controller id="1" name="LC1" type="loadcurve">
			<interpolate>LINEAR</interpolate>
			<extend>CONSTANT</extend>
			<points>
				<pt>0,0</pt>
				<pt>1,1</pt>
			</points>
		</load_controller>
	</LoadData>
	<Output>
		<plotfile type="febio">
			<var type="displacement"/>
			<var type="stress"/>
			<var type="relative volume"/>
			<var type="shell displacement"/>
			<var type="shell thickness"/>
			<var type="shell director"/>
			<var type="nodal stress"/>
			<var type="nodal strain"/>
			<var type="shell bottom stress"/>
			<var type="shell top stress"/>
			<var type="shell bottom strain"/>
			<var type="shell top strain"/>
			<var type="shell bottom nodal stress"/>
			<var type="shell top nodal stress"/>
			<var type="shell bottom nodal strain"/>
			<var type="shell top nodal strain"/>
			<var type="shell strain"/>
		</plotfile>
	</Output>
</febio_spec>
