<?xml version="1.0" encoding="ISO-8859-1"?>
<febio_spec version="4.0">
	<Module type="solid">
		<units>mm-N-s</units>
	</Module>
	<Control>
		<analysis>STATIC</analysis>
		<time_steps>1</time_steps>
		<step_size>1</step_size>
		<plot_zero_state>0</plot_zero_state>
		<plot_range>0,-1</plot_range>
		<plot_level>PLOT_MAJOR_ITRS</plot_level>
		<output_level>OUTPUT_MAJOR_ITRS</output_level>
		<plot_stride>1</plot_stride>
		<output_stride>1</output_stride>
		<adaptor_re_solve>1</adaptor_re_solve>
		<time_stepper type="default">
			<max_retries>5</max_retries>
			<opt_iter>11</opt_iter>
			<dtmin>0</dtmin>
			<dtmax>1</dtmax>
			<aggressiveness>0</aggressiveness>
			<cutback>0.5</cutback>
			<dtforce>0</dtforce>
		</time_stepper>
		<solver type="solid">
			<symmetric_stiffness>preferred</symmetric_stiffness>
			<equation_scheme>staggered</equation_scheme>
			<equation_order>default</equation_order>
			<optimize_bw>0</optimize_bw>
			<lstol>0.9</lstol>
			<lsmin>0.01</lsmin>
			<lsiter>5</lsiter>
			<ls_check_jacobians>0</ls_check_jacobians>
			<max_refs>15</max_refs>
			<check_zero_diagonal>0</check_zero_diagonal>
			<zero_diagonal_tol>0</zero_diagonal_tol>
			<force_partition>0</force_partition>
			<reform_each_time_step>1</reform_each_time_step>
			<reform_augment>0</reform_augment>
			<diverge_reform>1</diverge_reform>
			<min_residual>1e-20</min_residual>
			<max_residual>0</max_residual>
			<dtol>0.001</dtol>
			<etol>0.01</etol>
			<rtol>0</rtol>
			<rhoi>-2</rhoi>
			<alpha>1</alpha>
			<beta>0.25</beta>
			<gamma>0.5</gamma>
			<logSolve>0</logSolve>
			<arc_length>0</arc_length>
			<arc_length_scale>0</arc_length_scale>
			<qn_method type="BFGS">
				<max_ups>10</max_ups>
				<max_buffer_size>0</max_buffer_size>
				<cycle_buffer>1</cycle_buffer>
				<cmax>100000</cmax>
			</qn_method>
		</solver>
	</Control>
	<Globals>
		<Constants>
			<T>0</T>
			<P>0</P>
			<R>8.31446e-06</R>
			<Fc>9.64853e-05</Fc>
		</Constants>
	</Globals>
	<Material>
		<material id="1" name="Alloy Steel" type="neo-Hookean">
			<density>1</density>
			<E>210000</E>
			<v>0.28</v>
		</material>
	</Material>
	<Mesh>
		<Nodes name="Part01">
			<node id="1">0,40,10</node>
			<node id="2">0,40,30</node>
			<node id="3">0,38.98832,10.05131</node>
			<node id="4">0,37.98701,10.2047</node>
			<node id="5">0,37.00637,10.45861</node>
			<node id="6">0,36.05644,10.81042</node>
			<node id="7">0,35.14698,11.25653</node>
			<node id="8">0,34.28732,11.79237</node>
			<node id="9">0,33.48628,12.41242</node>
			<node id="10">0,32.75207,13.11033</node>
			<node id="11">0,32.09224,13.87894</node>
			<node id="12">0,31.51356,14.71036</node>
			<node id="13">0,31.02195,15.59606</node>
			<node id="14">0,30.62248,16.52695</node>
			<node id="15">0,30.31923,17.49347</node>
			<node id="16">0,30.11532,18.48572</node>
			<node id="17">0,30.01283,19.49351</node>
			<node id="18">0,30.01283,20.50649</node>
			<node id="19">0,30.11532,21.51428</node>
			<node id="20">0,30.31923,22.50653</node>
<!-- ... 35587 like lines cut -->
		</Nodes>
		<Elements type="quad8" name="EB1">
			<elem id="5242">228,277,585,267,12565,12703,12682,12566</elem>
			<elem id="5243">277,276,586,585,12701,12702,13442,12703</elem>
			<elem id="5244">276,275,587,586,12699,12700,13444,12702</elem>
			<elem id="5245">275,274,588,587,12697,12698,13446,12700</elem>
			<elem id="5246">274,273,589,588,12695,12696,13448,12698</elem>
			<elem id="5247">273,272,590,589,12693,12694,13450,12696</elem>
			<elem id="5248">272,271,591,590,12691,12692,13452,12694</elem>
			<elem id="5249">271,270,592,591,12689,12690,13454,12692</elem>
			<elem id="5250">270,269,593,592,12687,12688,13456,12690</elem>
			<elem id="5251">269,268,594,593,12684,12685,13458,12688</elem>
			<elem id="5252">268,279,595,594,12686,12707,13460,12685</elem>
			<elem id="5253">279,280,596,595,12708,12709,13462,12707</elem>
			<elem id="5254">280,281,597,596,12710,12711,13464,12709</elem>
			<elem id="5255">281,282,598,597,12712,12713,13466,12711</elem>
			<elem id="5256">282,283,599,598,12714,12715,13468,12713</elem>
			<elem id="5257">283,284,600,599,12716,12717,13470,12715</elem>
			<elem id="5258">284,285,601,600,12718,12719,13472,12717</elem>
			<elem id="5259">285,286,602,601,12720,12721,13474,12719</elem>
			<elem id="5260">286,287,603,602,12722,12723,13477,12721</elem>
			<elem id="5261">287,288,604,603,12724,12725,13479,12723</elem>
<!-- ... 5747 like lines cut -->
		</Elements>
		<Elements type="quad8" name="Part4">
			<elem id="11009">6255,6270,6287,6286,24452,24483,24513,24453</elem>
			<elem id="11010">6270,6269,6288,6287,24481,24482,24517,24483</elem>
			<elem id="11011">6269,6268,6289,6288,24479,24480,24519,24482</elem>
			<elem id="11012">6268,6267,6290,6289,24477,24478,24521,24480</elem>
			<elem id="11013">6267,6266,6291,6290,24475,24476,24524,24478</elem>
			<elem id="11014">6266,6265,6292,6291,24473,24474,24527,24476</elem>
			<elem id="11015">6265,6264,6293,6292,24471,24472,24529,24474</elem>
			<elem id="11016">6264,6263,6294,6293,24469,24470,24532,24472</elem>
			<elem id="11017">6263,6262,6295,6294,24467,24468,24534,24470</elem>
			<elem id="11018">6262,6261,6296,6295,24465,24466,24536,24468</elem>
			<elem id="11019">6261,6260,6297,6296,24463,24464,24539,24466</elem>
			<elem id="11020">6260,6259,6298,6297,24461,24462,24541,24464</elem>
			<elem id="11021">6259,6258,6299,6298,24459,24460,24543,24462</elem>
			<elem id="11022">6258,6257,6300,6299,24457,24458,24545,24460</elem>
			<elem id="11023">6257,6256,6301,6300,24455,24456,24548,24458</elem>
			<elem id="11024">6256,6254,6302,6301,24449,24450,24550,24456</elem>
			<elem id="11025">6254,6285,6303,6302,24451,24512,24552,24450</elem>
			<elem id="11026">6285,6284,6304,6303,24510,24511,24554,24512</elem>
			<elem id="11027">6284,6283,6305,6304,24508,24509,24556,24511</elem>
			<elem id="11028">6283,6282,6306,6305,24506,24507,24558,24509</elem>
<!-- ... 192 like lines cut -->
		</Elements>
		<Elements type="quad8" name="Part5">
			<elem id="11221">6058,6073,6090,6089,24105,24136,24166,24106</elem>
			<elem id="11222">6073,6072,6091,6090,24134,24135,24170,24136</elem>
			<elem id="11223">6072,6071,6092,6091,24132,24133,24172,24135</elem>
			<elem id="11224">6071,6070,6093,6092,24130,24131,24174,24133</elem>
			<elem id="11225">6070,6069,6094,6093,24128,24129,24177,24131</elem>
			<elem id="11226">6069,6068,6095,6094,24126,24127,24180,24129</elem>
			<elem id="11227">6068,6067,6096,6095,24124,24125,24182,24127</elem>
			<elem id="11228">6067,6066,6097,6096,24122,24123,24185,24125</elem>
			<elem id="11229">6066,6065,6098,6097,24120,24121,24187,24123</elem>
			<elem id="11230">6065,6064,6099,6098,24118,24119,24189,24121</elem>
			<elem id="11231">6064,6063,6100,6099,24116,24117,24192,24119</elem>
			<elem id="11232">6063,6062,6101,6100,24114,24115,24194,24117</elem>
			<elem id="11233">6062,6061,6102,6101,24112,24113,24196,24115</elem>
			<elem id="11234">6061,6060,6103,6102,24110,24111,24198,24113</elem>
			<elem id="11235">6060,6059,6104,6103,24108,24109,24201,24111</elem>
			<elem id="11236">6059,6057,6105,6104,24102,24103,24203,24109</elem>
			<elem id="11237">6057,6088,6106,6105,24104,24165,24205,24103</elem>
			<elem id="11238">6088,6087,6107,6106,24163,24164,24207,24165</elem>
			<elem id="11239">6087,6086,6108,6107,24161,24162,24209,24164</elem>
			<elem id="11240">6086,6085,6109,6108,24159,24160,24211,24162</elem>
<!-- ... 192 like lines cut -->
		</Elements>
		<Elements type="quad8" name="Part6">
			<elem id="11433">6452,6467,6484,6483,24799,24830,24860,24800</elem>
			<elem id="11434">6467,6466,6485,6484,24828,24829,24864,24830</elem>
			<elem id="11435">6466,6465,6486,6485,24826,24827,24866,24829</elem>
			<elem id="11436">6465,6464,6487,6486,24824,24825,24868,24827</elem>
			<elem id="11437">6464,6463,6488,6487,24822,24823,24871,24825</elem>
			<elem id="11438">6463,6462,6489,6488,24820,24821,24874,24823</elem>
			<elem id="11439">6462,6461,6490,6489,24818,24819,24876,24821</elem>
			<elem id="11440">6461,6460,6491,6490,24816,24817,24879,24819</elem>
			<elem id="11441">6460,6459,6492,6491,24814,24815,24881,24817</elem>
			<elem id="11442">6459,6458,6493,6492,24812,24813,24883,24815</elem>
			<elem id="11443">6458,6457,6494,6493,24810,24811,24886,24813</elem>
			<elem id="11444">6457,6456,6495,6494,24808,24809,24888,24811</elem>
			<elem id="11445">6456,6455,6496,6495,24806,24807,24890,24809</elem>
			<elem id="11446">6455,6454,6497,6496,24804,24805,24892,24807</elem>
			<elem id="11447">6454,6453,6498,6497,24802,24803,24895,24805</elem>
			<elem id="11448">6453,6451,6499,6498,24796,24797,24897,24803</elem>
			<elem id="11449">6451,6482,6500,6499,24798,24859,24899,24797</elem>
			<elem id="11450">6482,6481,6501,6500,24857,24858,24901,24859</elem>
			<elem id="11451">6481,6480,6502,6501,24855,24856,24903,24858</elem>
			<elem id="11452">6480,6479,6503,6502,24853,24854,24905,24856</elem>
<!-- ... 185 like lines cut -->
		</Elements>
		<Elements type="quad8" name="Part7">
			<elem id="11638">6642,6657,6674,6673,25132,25163,25193,25133</elem>
			<elem id="11639">6657,6656,6675,6674,25161,25162,25197,25163</elem>
			<elem id="11640">6656,6655,6676,6675,25159,25160,25199,25162</elem>
			<elem id="11641">6655,6654,6677,6676,25157,25158,25201,25160</elem>
			<elem id="11642">6654,6653,6678,6677,25155,25156,25204,25158</elem>
			<elem id="11643">6653,6652,6679,6678,25153,25154,25207,25156</elem>
			<elem id="11644">6652,6651,6680,6679,25151,25152,25209,25154</elem>
			<elem id="11645">6651,6650,6681,6680,25149,25150,25212,25152</elem>
			<elem id="11646">6650,6649,6682,6681,25147,25148,25214,25150</elem>
			<elem id="11647">6649,6648,6683,6682,25145,25146,25216,25148</elem>
			<elem id="11648">6648,6647,6684,6683,25143,25144,25219,25146</elem>
			<elem id="11649">6647,6646,6685,6684,25141,25142,25221,25144</elem>
			<elem id="11650">6646,6645,6686,6685,25139,25140,25223,25142</elem>
			<elem id="11651">6645,6644,6687,6686,25137,25138,25225,25140</elem>
			<elem id="11652">6644,6643,6688,6687,25135,25136,25228,25138</elem>
			<elem id="11653">6643,6641,6689,6688,25129,25130,25230,25136</elem>
			<elem id="11654">6641,6672,6690,6689,25131,25192,25232,25130</elem>
			<elem id="11655">6672,6671,6691,6690,25190,25191,25234,25192</elem>
			<elem id="11656">6671,6670,6692,6691,25188,25189,25236,25191</elem>
			<elem id="11657">6670,6669,6693,6692,25186,25187,25238,25189</elem>
<!-- ... 189 like lines cut -->
		</Elements>
		<Elements type="quad8" name="Part8">
			<elem id="11847">218,6988,7118,229,12547,25776,12570,12546</elem>
			<elem id="11848">6988,6989,7119,7118,25777,25778,26034,25776</elem>
			<elem id="11849">6989,6990,7120,7119,25779,25780,26036,25778</elem>
			<elem id="11850">6990,6991,7121,7120,25781,25782,26038,25780</elem>
			<elem id="11851">6991,6992,7122,7121,25783,25784,26040,25782</elem>
			<elem id="11852">6992,6993,7123,7122,25785,25786,26042,25784</elem>
			<elem id="11853">6993,6994,7124,7123,25787,25788,26044,25786</elem>
			<elem id="11854">6994,6995,7125,7124,25789,25790,26046,25788</elem>
			<elem id="11855">6995,6996,7126,7125,25791,25792,26048,25790</elem>
			<elem id="11856">6996,6997,7127,7126,25793,25794,26050,25792</elem>
			<elem id="11857">6997,6998,7128,7127,25795,25796,26052,25794</elem>
			<elem id="11858">6998,6999,7129,7128,25797,25798,26054,25796</elem>
			<elem id="11859">6999,7000,7130,7129,25799,25800,26056,25798</elem>
			<elem id="11860">7000,7001,7131,7130,25801,25802,26058,25800</elem>
			<elem id="11861">7001,7002,7132,7131,25803,25804,26060,25802</elem>
			<elem id="11862">7002,7003,7133,7132,25805,25806,26062,25804</elem>
			<elem id="11863">7003,7004,7134,7133,25807,25808,26064,25806</elem>
			<elem id="11864">7004,7005,7135,7134,25809,25810,26066,25808</elem>
			<elem id="11865">7005,7006,7136,7135,25811,25812,26068,25810</elem>
			<elem id="11866">7006,7007,7137,7136,25813,25814,26070,25812</elem>
<!-- ... 5009 like lines cut -->
		</Elements>
		<Surface name="ZeroDisplacement2">
			<quad8 id="1">6255,6270,6287,6286,24452,24483,24513,24453</quad8>
			<quad8 id="2">6270,6269,6288,6287,24481,24482,24517,24483</quad8>
			<quad8 id="3">6269,6268,6289,6288,24479,24480,24519,24482</quad8>
			<quad8 id="4">6268,6267,6290,6289,24477,24478,24521,24480</quad8>
			<quad8 id="5">6267,6266,6291,6290,24475,24476,24524,24478</quad8>
			<quad8 id="6">6266,6265,6292,6291,24473,24474,24527,24476</quad8>
			<quad8 id="7">6265,6264,6293,6292,24471,24472,24529,24474</quad8>
			<quad8 id="8">6264,6263,6294,6293,24469,24470,24532,24472</quad8>
			<quad8 id="9">6263,6262,6295,6294,24467,24468,24534,24470</quad8>
			<quad8 id="10">6262,6261,6296,6295,24465,24466,24536,24468</quad8>
			<quad8 id="11">6261,6260,6297,6296,24463,24464,24539,24466</quad8>
			<quad8 id="12">6260,6259,6298,6297,24461,24462,24541,24464</quad8>
			<quad8 id="13">6259,6258,6299,6298,24459,24460,24543,24462</quad8>
			<quad8 id="14">6258,6257,6300,6299,24457,24458,24545,24460</quad8>
			<quad8 id="15">6257,6256,6301,6300,24455,24456,24548,24458</quad8>
			<quad8 id="16">6256,6254,6302,6301,24449,24450,24550,24456</quad8>
			<quad8 id="17">6254,6285,6303,6302,24451,24512,24552,24450</quad8>
			<quad8 id="18">6285,6284,6304,6303,24510,24511,24554,24512</quad8>
			<quad8 id="19">6284,6283,6305,6304,24508,24509,24556,24511</quad8>
			<quad8 id="20">6283,6282,6306,6305,24506,24507,24558,24509</quad8>
<!-- ... 818 like lines cut -->
		</Surface>
		<Surface name="BearingLoad1">
			<quad8 id="1">218,6988,7118,229,12547,25776,12570,12546</quad8>
			<quad8 id="2">6988,6989,7119,7118,25777,25778,26034,25776</quad8>
			<quad8 id="3">6989,6990,7120,7119,25779,25780,26036,25778</quad8>
			<quad8 id="4">6990,6991,7121,7120,25781,25782,26038,25780</quad8>
			<quad8 id="5">6991,6992,7122,7121,25783,25784,26040,25782</quad8>
			<quad8 id="6">6992,6993,7123,7122,25785,25786,26042,25784</quad8>
			<quad8 id="7">6993,6994,7124,7123,25787,25788,26044,25786</quad8>
			<quad8 id="8">6994,6995,7125,7124,25789,25790,26046,25788</quad8>
			<quad8 id="9">6995,6996,7126,7125,25791,25792,26048,25790</quad8>
			<quad8 id="10">6996,6997,7127,7126,25793,25794,26050,25792</quad8>
			<quad8 id="11">6997,6998,7128,7127,25795,25796,26052,25794</quad8>
			<quad8 id="12">6998,6999,7129,7128,25797,25798,26054,25796</quad8>
			<quad8 id="13">6999,7000,7130,7129,25799,25800,26056,25798</quad8>
			<quad8 id="14">7000,7001,7131,7130,25801,25802,26058,25800</quad8>
			<quad8 id="15">7001,7002,7132,7131,25803,25804,26060,25802</quad8>
			<quad8 id="16">7002,7003,7133,7132,25805,25806,26062,25804</quad8>
			<quad8 id="17">7003,7004,7134,7133,25807,25808,26064,25806</quad8>
			<quad8 id="18">7004,7005,7135,7134,25809,25810,26066,25808</quad8>
			<quad8 id="19">7005,7006,7136,7135,25811,25812,26068,25810</quad8>
			<quad8 id="20">7006,7007,7137,7136,25813,25814,26070,25812</quad8>
<!-- ... 5009 like lines cut -->
		</Surface>
	</Mesh>
	<MeshDomains>
		<ShellDomain name="EB1" mat="Alloy Steel" type="elastic-shell">
			<shell_thickness>4</shell_thickness>
			<shell_normal_nodal>1</shell_normal_nodal>
			<secant_stress>0</secant_stress>
			<secant_tangent>0</secant_tangent>
		</ShellDomain>
		<ShellDomain name="Part4" mat="Alloy Steel" type="elastic-shell">
			<shell_thickness>4</shell_thickness>
			<shell_normal_nodal>1</shell_normal_nodal>
			<secant_stress>0</secant_stress>
			<secant_tangent>0</secant_tangent>
		</ShellDomain>
		<ShellDomain name="Part5" mat="Alloy Steel" type="elastic-shell">
			<shell_thickness>4</shell_thickness>
			<shell_normal_nodal>1</shell_normal_nodal>
			<secant_stress>0</secant_stress>
			<secant_tangent>0</secant_tangent>
		</ShellDomain>
		<ShellDomain name="Part6" mat="Alloy Steel" type="elastic-shell">
			<shell_thickness>4</shell_thickness>
			<shell_normal_nodal>1</shell_normal_nodal>
			<secant_stress>0</secant_stress>
			<secant_tangent>0</secant_tangent>
		</ShellDomain>
		<ShellDomain name="Part7" mat="Alloy Steel" type="elastic-shell">
			<shell_thickness>4</shell_thickness>
			<shell_normal_nodal>1</shell_normal_nodal>
			<secant_stress>0</secant_stress>
			<secant_tangent>0</secant_tangent>
		</ShellDomain>
		<ShellDomain name="Part8" mat="Alloy Steel" type="elastic-shell">
			<shell_thickness>4</shell_thickness>
			<shell_normal_nodal>1</shell_normal_nodal>
			<secant_stress>0</secant_stress>
			<secant_tangent>0</secant_tangent>
		</ShellDomain>
	</MeshDomains>
	<MeshData>
		<ElementData type="shell thickness" elem_set="EB1">
			<e lid="1">4,4,4,4,4,4,4,4</e>
			<e lid="2">4,4,4,4,4,4,4,4</e>
			<e lid="3">4,4,4,4,4,4,4,4</e>
			<e lid="4">4,4,4,4,4,4,4,4</e>
			<e lid="5">4,4,4,4,4,4,4,4</e>
			<e lid="6">4,4,4,4,4,4,4,4</e>
			<e lid="7">4,4,4,4,4,4,4,4</e>
			<e lid="8">4,4,4,4,4,4,4,4</e>
			<e lid="9">4,4,4,4,4,4,4,4</e>
			<e lid="10">4,4,4,4,4,4,4,4</e>
			<e lid="11">4,4,4,4,4,4,4,4</e>
			<e lid="12">4,4,4,4,4,4,4,4</e>
			<e lid="13">4,4,4,4,4,4,4,4</e>
			<e lid="14">4,4,4,4,4,4,4,4</e>
			<e lid="15">4,4,4,4,4,4,4,4</e>
			<e lid="16">4,4,4,4,4,4,4,4</e>
			<e lid="17">4,4,4,4,4,4,4,4</e>
			<e lid="18">4,4,4,4,4,4,4,4</e>
			<e lid="19">4,4,4,4,4,4,4,4</e>
			<e lid="20">4,4,4,4,4,4,4,4</e>
<!-- ... 5747 like lines cut -->
		</ElementData>
		<ElementData type="shell thickness" elem_set="Part4">
			<e lid="1">4,4,4,4,4,4,4,4</e>
			<e lid="2">4,4,4,4,4,4,4,4</e>
			<e lid="3">4,4,4,4,4,4,4,4</e>
			<e lid="4">4,4,4,4,4,4,4,4</e>
			<e lid="5">4,4,4,4,4,4,4,4</e>
			<e lid="6">4,4,4,4,4,4,4,4</e>
			<e lid="7">4,4,4,4,4,4,4,4</e>
			<e lid="8">4,4,4,4,4,4,4,4</e>
			<e lid="9">4,4,4,4,4,4,4,4</e>
			<e lid="10">4,4,4,4,4,4,4,4</e>
			<e lid="11">4,4,4,4,4,4,4,4</e>
			<e lid="12">4,4,4,4,4,4,4,4</e>
			<e lid="13">4,4,4,4,4,4,4,4</e>
			<e lid="14">4,4,4,4,4,4,4,4</e>
			<e lid="15">4,4,4,4,4,4,4,4</e>
			<e lid="16">4,4,4,4,4,4,4,4</e>
			<e lid="17">4,4,4,4,4,4,4,4</e>
			<e lid="18">4,4,4,4,4,4,4,4</e>
			<e lid="19">4,4,4,4,4,4,4,4</e>
			<e lid="20">4,4,4,4,4,4,4,4</e>
<!-- ... 192 like lines cut -->
		</ElementData>
		<ElementData type="shell thickness" elem_set="Part5">
			<e lid="1">4,4,4,4,4,4,4,4</e>
			<e lid="2">4,4,4,4,4,4,4,4</e>
			<e lid="3">4,4,4,4,4,4,4,4</e>
			<e lid="4">4,4,4,4,4,4,4,4</e>
			<e lid="5">4,4,4,4,4,4,4,4</e>
			<e lid="6">4,4,4,4,4,4,4,4</e>
			<e lid="7">4,4,4,4,4,4,4,4</e>
			<e lid="8">4,4,4,4,4,4,4,4</e>
			<e lid="9">4,4,4,4,4,4,4,4</e>
			<e lid="10">4,4,4,4,4,4,4,4</e>
			<e lid="11">4,4,4,4,4,4,4,4</e>
			<e lid="12">4,4,4,4,4,4,4,4</e>
			<e lid="13">4,4,4,4,4,4,4,4</e>
			<e lid="14">4,4,4,4,4,4,4,4</e>
			<e lid="15">4,4,4,4,4,4,4,4</e>
			<e lid="16">4,4,4,4,4,4,4,4</e>
			<e lid="17">4,4,4,4,4,4,4,4</e>
			<e lid="18">4,4,4,4,4,4,4,4</e>
			<e lid="19">4,4,4,4,4,4,4,4</e>
			<e lid="20">4,4,4,4,4,4,4,4</e>
<!-- ... 192 like lines cut -->
		</ElementData>
		<ElementData type="shell thickness" elem_set="Part6">
			<e lid="1">4,4,4,4,4,4,4,4</e>
			<e lid="2">4,4,4,4,4,4,4,4</e>
			<e lid="3">4,4,4,4,4,4,4,4</e>
			<e lid="4">4,4,4,4,4,4,4,4</e>
			<e lid="5">4,4,4,4,4,4,4,4</e>
			<e lid="6">4,4,4,4,4,4,4,4</e>
			<e lid="7">4,4,4,4,4,4,4,4</e>
			<e lid="8">4,4,4,4,4,4,4,4</e>
			<e lid="9">4,4,4,4,4,4,4,4</e>
			<e lid="10">4,4,4,4,4,4,4,4</e>
			<e lid="11">4,4,4,4,4,4,4,4</e>
			<e lid="12">4,4,4,4,4,4,4,4</e>
			<e lid="13">4,4,4,4,4,4,4,4</e>
			<e lid="14">4,4,4,4,4,4,4,4</e>
			<e lid="15">4,4,4,4,4,4,4,4</e>
			<e lid="16">4,4,4,4,4,4,4,4</e>
			<e lid="17">4,4,4,4,4,4,4,4</e>
			<e lid="18">4,4,4,4,4,4,4,4</e>
			<e lid="19">4,4,4,4,4,4,4,4</e>
			<e lid="20">4,4,4,4,4,4,4,4</e>
<!-- ... 185 like lines cut -->
		</ElementData>
		<ElementData type="shell thickness" elem_set="Part7">
			<e lid="1">4,4,4,4,4,4,4,4</e>
			<e lid="2">4,4,4,4,4,4,4,4</e>
			<e lid="3">4,4,4,4,4,4,4,4</e>
			<e lid="4">4,4,4,4,4,4,4,4</e>
			<e lid="5">4,4,4,4,4,4,4,4</e>
			<e lid="6">4,4,4,4,4,4,4,4</e>
			<e lid="7">4,4,4,4,4,4,4,4</e>
			<e lid="8">4,4,4,4,4,4,4,4</e>
			<e lid="9">4,4,4,4,4,4,4,4</e>
			<e lid="10">4,4,4,4,4,4,4,4</e>
			<e lid="11">4,4,4,4,4,4,4,4</e>
			<e lid="12">4,4,4,4,4,4,4,4</e>
			<e lid="13">4,4,4,4,4,4,4,4</e>
			<e lid="14">4,4,4,4,4,4,4,4</e>
			<e lid="15">4,4,4,4,4,4,4,4</e>
			<e lid="16">4,4,4,4,4,4,4,4</e>
			<e lid="17">4,4,4,4,4,4,4,4</e>
			<e lid="18">4,4,4,4,4,4,4,4</e>
			<e lid="19">4,4,4,4,4,4,4,4</e>
			<e lid="20">4,4,4,4,4,4,4,4</e>
<!-- ... 189 like lines cut -->
		</ElementData>
		<ElementData type="shell thickness" elem_set="Part8">
			<e lid="1">4,4,4,4,4,4,4,4</e>
			<e lid="2">4,4,4,4,4,4,4,4</e>
			<e lid="3">4,4,4,4,4,4,4,4</e>
			<e lid="4">4,4,4,4,4,4,4,4</e>
			<e lid="5">4,4,4,4,4,4,4,4</e>
			<e lid="6">4,4,4,4,4,4,4,4</e>
			<e lid="7">4,4,4,4,4,4,4,4</e>
			<e lid="8">4,4,4,4,4,4,4,4</e>
			<e lid="9">4,4,4,4,4,4,4,4</e>
			<e lid="10">4,4,4,4,4,4,4,4</e>
			<e lid="11">4,4,4,4,4,4,4,4</e>
			<e lid="12">4,4,4,4,4,4,4,4</e>
			<e lid="13">4,4,4,4,4,4,4,4</e>
			<e lid="14">4,4,4,4,4,4,4,4</e>
			<e lid="15">4,4,4,4,4,4,4,4</e>
			<e lid="16">4,4,4,4,4,4,4,4</e>
			<e lid="17">4,4,4,4,4,4,4,4</e>
			<e lid="18">4,4,4,4,4,4,4,4</e>
			<e lid="19">4,4,4,4,4,4,4,4</e>
			<e lid="20">4,4,4,4,4,4,4,4</e>
<!-- ... 5009 like lines cut -->
		</ElementData>
	</MeshData>
	<Boundary>
		<bc name="ZeroDisplacement2" node_set="@surface:ZeroDisplacement2" type="zero displacement">
			<x_dof>1</x_dof>
			<y_dof>1</y_dof>
			<z_dof>1</z_dof>
		</bc>
	</Boundary>
	<Loads>
		<surface_load name="BearingLoad1" surface="BearingLoad1" type="bearing load">
			<scale lc="1">1</scale>
			<force>0,-100,0</force>
			<symmetric_stiffness>1</symmetric_stiffness>
			<linear>0</linear>
			<shell_bottom>0</shell_bottom>
			<profile>0</profile>
		</surface_load>
	</Loads>
	<LoadData>
		<load_controller id="1" name="LC1" type="loadcurve">
			<interpolate>LINEAR</interpolate>
			<extend>CONSTANT</extend>
			<points>
				<pt>0,0</pt>
				<pt>1,1</pt>
			</points>
		</load_controller>
	</LoadData>
	<Output>
		<plotfile type="febio">
			<var type="displacement"/>
			<var type="stress"/>
			<var type="relative volume"/>
			<var type="shell displacement"/>
			<var type="shell thickness"/>
			<var type="shell director"/>
			<var type="nodal stress"/>
			<var type="nodal strain"/>
			<var type="shell bottom stress"/>
			<var type="shell top stress"/>
			<var type="shell bottom strain"/>
			<var type="shell top strain"/>
			<var type="shell bottom nodal stress"/>
			<var type="shell top nodal stress"/>
			<var type="shell bottom nodal strain"/>
			<var type="shell top nodal strain"/>
			<var type="shell strain"/>
		</plotfile>
	</Output>
</febio_spec>
