<?xml version="1.0" encoding="ISO-8859-1"?>
<febio_spec version="4.0">
	<Module type="solid">
		<units>mm-N-s</units>
	</Module>
	<Control>
		<analysis>STATIC</analysis>
		<time_steps>1</time_steps>
		<step_size>1</step_size>
		<plot_zero_state>0</plot_zero_state>
		<plot_range>0,-1</plot_range>
		<plot_level>PLOT_MAJOR_ITRS</plot_level>
		<output_level>OUTPUT_MAJOR_ITRS</output_level>
		<plot_stride>1</plot_stride>
		<output_stride>1</output_stride>
		<adaptor_re_solve>1</adaptor_re_solve>
		<time_stepper type="default">
			<max_retries>5</max_retries>
			<opt_iter>11</opt_iter>
			<dtmin>0</dtmin>
			<dtmax>1</dtmax>
			<aggressiveness>0</aggressiveness>
			<cutback>0.5</cutback>
			<dtforce>0</dtforce>
		</time_stepper>
		<solver type="solid">
			<symmetric_stiffness>preferred</symmetric_stiffness>
			<equation_scheme>staggered</equation_scheme>
			<equation_order>default</equation_order>
			<optimize_bw>0</optimize_bw>
			<lstol>0.9</lstol>
			<lsmin>0.01</lsmin>
			<lsiter>5</lsiter>
			<ls_check_jacobians>0</ls_check_jacobians>
			<max_refs>15</max_refs>
			<check_zero_diagonal>0</check_zero_diagonal>
			<zero_diagonal_tol>0</zero_diagonal_tol>
			<force_partition>0</force_partition>
			<reform_each_time_step>1</reform_each_time_step>
			<reform_augment>0</reform_augment>
			<diverge_reform>1</diverge_reform>
			<min_residual>1e-20</min_residual>
			<max_residual>0</max_residual>
			<dtol>0.001</dtol>
			<etol>0.01</etol>
			<rtol>0</rtol>
			<rhoi>-2</rhoi>
			<alpha>1</alpha>
			<beta>0.25</beta>
			<gamma>0.5</gamma>
			<logSolve>0</logSolve>
			<arc_length>0</arc_length>
			<arc_length_scale>0</arc_length_scale>
			<qn_method type="BFGS">
				<max_ups>10</max_ups>
				<max_buffer_size>0</max_buffer_size>
				<cycle_buffer>1</cycle_buffer>
				<cmax>100000</cmax>
			</qn_method>
		</solver>
	</Control>
	<Globals>
		<Constants>
			<T>0</T>
			<P>0</P>
			<R>8.31446e-06</R>
			<Fc>9.64853e-05</Fc>
		</Constants>
	</Globals>
	<Material>
		<material id="1" name="Alloy Steel" type="neo-Hookean">
			<density>1</density>
			<E>210000</E>
			<v>0.28</v>
		</material>
	</Material>
	<Mesh>
		<Nodes name="Part01">
			<node id="1">0,40,10</node>
			<node id="2">0,40,30</node>
			<node id="3">0,38.98832,10.05131</node>
			<node id="4">0,37.98701,10.2047</node>
			<node id="5">0,37.00637,10.45861</node>
			<node id="6">0,36.05644,10.81042</node>
			<node id="7">0,35.14698,11.25653</node>
			<node id="8">0,34.28732,11.79237</node>
			<node id="9">0,33.48628,12.41242</node>
			<node id="10">0,32.75207,13.11033</node>
			<node id="11">0,32.09224,13.87894</node>
			<node id="12">0,31.51356,14.71036</node>
			<node id="13">0,31.02195,15.59606</node>
			<node id="14">0,30.62248,16.52695</node>
			<node id="15">0,30.31923,17.49347</node>
			<node id="16">0,30.11532,18.48572</node>
			<node id="17">0,30.01283,19.49351</node>
			<node id="18">0,30.01283,20.50649</node>
			<node id="19">0,30.11532,21.51428</node>
			<node id="20">0,30.31923,22.50653</node>
<!-- ... 11965 like lines cut -->
		</Nodes>
		<Elements type="tri3" name="EB1">
			<elem id="5242">228,277,585</elem>
			<elem id="5243">585,267,228</elem>
			<elem id="5244">277,276,586</elem>
			<elem id="5245">586,585,277</elem>
			<elem id="5246">276,275,587</elem>
			<elem id="5247">587,586,276</elem>
			<elem id="5248">275,274,588</elem>
			<elem id="5249">588,587,275</elem>
			<elem id="5250">274,273,589</elem>
			<elem id="5251">589,588,274</elem>
			<elem id="5252">273,272,590</elem>
			<elem id="5253">590,589,273</elem>
			<elem id="5254">272,271,591</elem>
			<elem id="5255">591,590,272</elem>
			<elem id="5256">271,270,592</elem>
			<elem id="5257">592,591,271</elem>
			<elem id="5258">270,269,593</elem>
			<elem id="5259">593,592,270</elem>
			<elem id="5260">269,268,594</elem>
			<elem id="5261">594,593,269</elem>
<!-- ... 11514 like lines cut -->
		</Elements>
		<Elements type="tri3" name="Part4">
			<elem id="16776">6255,6270,6287</elem>
			<elem id="16777">6287,6286,6255</elem>
			<elem id="16778">6270,6269,6288</elem>
			<elem id="16779">6288,6287,6270</elem>
			<elem id="16780">6269,6268,6289</elem>
			<elem id="16781">6289,6288,6269</elem>
			<elem id="16782">6268,6267,6290</elem>
			<elem id="16783">6290,6289,6268</elem>
			<elem id="16784">6267,6266,6291</elem>
			<elem id="16785">6291,6290,6267</elem>
			<elem id="16786">6266,6265,6292</elem>
			<elem id="16787">6292,6291,6266</elem>
			<elem id="16788">6265,6264,6293</elem>
			<elem id="16789">6293,6292,6265</elem>
			<elem id="16790">6264,6263,6294</elem>
			<elem id="16791">6294,6293,6264</elem>
			<elem id="16792">6263,6262,6295</elem>
			<elem id="16793">6295,6294,6263</elem>
			<elem id="16794">6262,6261,6296</elem>
			<elem id="16795">6296,6295,6262</elem>
<!-- ... 404 like lines cut -->
		</Elements>
		<Elements type="tri3" name="Part5">
			<elem id="17200">6058,6073,6090</elem>
			<elem id="17201">6090,6089,6058</elem>
			<elem id="17202">6073,6072,6091</elem>
			<elem id="17203">6091,6090,6073</elem>
			<elem id="17204">6072,6071,6092</elem>
			<elem id="17205">6092,6091,6072</elem>
			<elem id="17206">6071,6070,6093</elem>
			<elem id="17207">6093,6092,6071</elem>
			<elem id="17208">6070,6069,6094</elem>
			<elem id="17209">6094,6093,6070</elem>
			<elem id="17210">6069,6068,6095</elem>
			<elem id="17211">6095,6094,6069</elem>
			<elem id="17212">6068,6067,6096</elem>
			<elem id="17213">6096,6095,6068</elem>
			<elem id="17214">6067,6066,6097</elem>
			<elem id="17215">6097,6096,6067</elem>
			<elem id="17216">6066,6065,6098</elem>
			<elem id="17217">6098,6097,6066</elem>
			<elem id="17218">6065,6064,6099</elem>
			<elem id="17219">6099,6098,6065</elem>
<!-- ... 404 like lines cut -->
		</Elements>
		<Elements type="tri3" name="Part6">
			<elem id="17624">6452,6467,6484</elem>
			<elem id="17625">6484,6483,6452</elem>
			<elem id="17626">6467,6466,6485</elem>
			<elem id="17627">6485,6484,6467</elem>
			<elem id="17628">6466,6465,6486</elem>
			<elem id="17629">6486,6485,6466</elem>
			<elem id="17630">6465,6464,6487</elem>
			<elem id="17631">6487,6486,6465</elem>
			<elem id="17632">6464,6463,6488</elem>
			<elem id="17633">6488,6487,6464</elem>
			<elem id="17634">6463,6462,6489</elem>
			<elem id="17635">6489,6488,6463</elem>
			<elem id="17636">6462,6461,6490</elem>
			<elem id="17637">6490,6489,6462</elem>
			<elem id="17638">6461,6460,6491</elem>
			<elem id="17639">6491,6490,6461</elem>
			<elem id="17640">6460,6459,6492</elem>
			<elem id="17641">6492,6491,6460</elem>
			<elem id="17642">6459,6458,6493</elem>
			<elem id="17643">6493,6492,6459</elem>
<!-- ... 390 like lines cut -->
		</Elements>
		<Elements type="tri3" name="Part7">
			<elem id="18034">6642,6657,6674</elem>
			<elem id="18035">6674,6673,6642</elem>
			<elem id="18036">6657,6656,6675</elem>
			<elem id="18037">6675,6674,6657</elem>
			<elem id="18038">6656,6655,6676</elem>
			<elem id="18039">6676,6675,6656</elem>
			<elem id="18040">6655,6654,6677</elem>
			<elem id="18041">6677,6676,6655</elem>
			<elem id="18042">6654,6653,6678</elem>
			<elem id="18043">6678,6677,6654</elem>
			<elem id="18044">6653,6652,6679</elem>
			<elem id="18045">6679,6678,6653</elem>
			<elem id="18046">6652,6651,6680</elem>
			<elem id="18047">6680,6679,6652</elem>
			<elem id="18048">6651,6650,6681</elem>
			<elem id="18049">6681,6680,6651</elem>
			<elem id="18050">6650,6649,6682</elem>
			<elem id="18051">6682,6681,6650</elem>
			<elem id="18052">6649,6648,6683</elem>
			<elem id="18053">6683,6682,6649</elem>
<!-- ... 398 like lines cut -->
		</Elements>
		<Elements type="tri3" name="Part8">
			<elem id="18452">218,6988,7118</elem>
			<elem id="18453">7118,229,218</elem>
			<elem id="18454">6988,6989,7119</elem>
			<elem id="18455">7119,7118,6988</elem>
			<elem id="18456">6989,6990,7120</elem>
			<elem id="18457">7120,7119,6989</elem>
			<elem id="18458">6990,6991,7121</elem>
			<elem id="18459">7121,7120,6990</elem>
			<elem id="18460">6991,6992,7122</elem>
			<elem id="18461">7122,7121,6991</elem>
			<elem id="18462">6992,6993,7123</elem>
			<elem id="18463">7123,7122,6992</elem>
			<elem id="18464">6993,6994,7124</elem>
			<elem id="18465">7124,7123,6993</elem>
			<elem id="18466">6994,6995,7125</elem>
			<elem id="18467">7125,7124,6994</elem>
			<elem id="18468">6995,6996,7126</elem>
			<elem id="18469">7126,7125,6995</elem>
			<elem id="18470">6996,6997,7127</elem>
			<elem id="18471">7127,7126,6996</elem>
<!-- ... 10038 like lines cut -->
		</Elements>
		<Surface name="ZeroDisplacement2">
			<tri3 id="1">6255,6270,6287</tri3>
			<tri3 id="2">6287,6286,6255</tri3>
			<tri3 id="3">6270,6269,6288</tri3>
			<tri3 id="4">6288,6287,6270</tri3>
			<tri3 id="5">6269,6268,6289</tri3>
			<tri3 id="6">6289,6288,6269</tri3>
			<tri3 id="7">6268,6267,6290</tri3>
			<tri3 id="8">6290,6289,6268</tri3>
			<tri3 id="9">6267,6266,6291</tri3>
			<tri3 id="10">6291,6290,6267</tri3>
			<tri3 id="11">6266,6265,6292</tri3>
			<tri3 id="12">6292,6291,6266</tri3>
			<tri3 id="13">6265,6264,6293</tri3>
			<tri3 id="14">6293,6292,6265</tri3>
			<tri3 id="15">6264,6263,6294</tri3>
			<tri3 id="16">6294,6293,6264</tri3>
			<tri3 id="17">6263,6262,6295</tri3>
			<tri3 id="18">6295,6294,6263</tri3>
			<tri3 id="19">6262,6261,6296</tri3>
			<tri3 id="20">6296,6295,6262</tri3>
<!-- ... 1656 like lines cut -->
		</Surface>
		<Surface name="BearingLoad1">
			<tri3 id="1">218,6988,7118</tri3>
			<tri3 id="2">7118,229,218</tri3>
			<tri3 id="3">6988,6989,7119</tri3>
			<tri3 id="4">7119,7118,6988</tri3>
			<tri3 id="5">6989,6990,7120</tri3>
			<tri3 id="6">7120,7119,6989</tri3>
			<tri3 id="7">6990,6991,7121</tri3>
			<tri3 id="8">7121,7120,6990</tri3>
			<tri3 id="9">6991,6992,7122</tri3>
			<tri3 id="10">7122,7121,6991</tri3>
			<tri3 id="11">6992,6993,7123</tri3>
			<tri3 id="12">7123,7122,6992</tri3>
			<tri3 id="13">6993,6994,7124</tri3>
			<tri3 id="14">7124,7123,6993</tri3>
			<tri3 id="15">6994,6995,7125</tri3>
			<tri3 id="16">7125,7124,6994</tri3>
			<tri3 id="17">6995,6996,7126</tri3>
			<tri3 id="18">7126,7125,6995</tri3>
			<tri3 id="19">6996,6997,7127</tri3>
			<tri3 id="20">7127,7126,6996</tri3>
<!-- ... 10038 like lines cut -->
		</Surface>
	</Mesh>
	<MeshDomains>
		<ShellDomain name="EB1" mat="Alloy Steel" type="elastic-shell">
			<shell_thickness>4</shell_thickness>
			<shell_normal_nodal>1</shell_normal_nodal>
		</ShellDomain>
		<ShellDomain name="Part4" mat="Alloy Steel" type="elastic-shell">
			<shell_thickness>4</shell_thickness>
			<shell_normal_nodal>1</shell_normal_nodal>
		</ShellDomain>
		<ShellDomain name="Part5" mat="Alloy Steel" type="elastic-shell">
			<shell_thickness>4</shell_thickness>
			<shell_normal_nodal>1</shell_normal_nodal>
		</ShellDomain>
		<ShellDomain name="Part6" mat="Alloy Steel" type="elastic-shell">
			<shell_thickness>4</shell_thickness>
			<shell_normal_nodal>1</shell_normal_nodal>
		</ShellDomain>
		<ShellDomain name="Part7" mat="Alloy Steel" type="elastic-shell">
			<shell_thickness>4</shell_thickness>
			<shell_normal_nodal>1</shell_normal_nodal>
		</ShellDomain>
		<ShellDomain name="Part8" mat="Alloy Steel" type="elastic-shell">
			<shell_thickness>4</shell_thickness>
			<shell_normal_nodal>1</shell_normal_nodal>
		</ShellDomain>
	</MeshDomains>
	<MeshData>
		<ElementData type="shell thickness" elem_set="EB1">
			<e lid="1">4,4,4</e>
			<e lid="2">4,4,4</e>
			<e lid="3">4,4,4</e>
			<e lid="4">4,4,4</e>
			<e lid="5">4,4,4</e>
			<e lid="6">4,4,4</e>
			<e lid="7">4,4,4</e>
			<e lid="8">4,4,4</e>
			<e lid="9">4,4,4</e>
			<e lid="10">4,4,4</e>
			<e lid="11">4,4,4</e>
			<e lid="12">4,4,4</e>
			<e lid="13">4,4,4</e>
			<e lid="14">4,4,4</e>
			<e lid="15">4,4,4</e>
			<e lid="16">4,4,4</e>
			<e lid="17">4,4,4</e>
			<e lid="18">4,4,4</e>
			<e lid="19">4,4,4</e>
			<e lid="20">4,4,4</e>
<!-- ... 11514 like lines cut -->
		</ElementData>
		<ElementData type="shell thickness" elem_set="Part4">
			<e lid="1">4,4,4</e>
			<e lid="2">4,4,4</e>
			<e lid="3">4,4,4</e>
			<e lid="4">4,4,4</e>
			<e lid="5">4,4,4</e>
			<e lid="6">4,4,4</e>
			<e lid="7">4,4,4</e>
			<e lid="8">4,4,4</e>
			<e lid="9">4,4,4</e>
			<e lid="10">4,4,4</e>
			<e lid="11">4,4,4</e>
			<e lid="12">4,4,4</e>
			<e lid="13">4,4,4</e>
			<e lid="14">4,4,4</e>
			<e lid="15">4,4,4</e>
			<e lid="16">4,4,4</e>
			<e lid="17">4,4,4</e>
			<e lid="18">4,4,4</e>
			<e lid="19">4,4,4</e>
			<e lid="20">4,4,4</e>
<!-- ... 404 like lines cut -->
		</ElementData>
		<ElementData type="shell thickness" elem_set="Part5">
			<e lid="1">4,4,4</e>
			<e lid="2">4,4,4</e>
			<e lid="3">4,4,4</e>
			<e lid="4">4,4,4</e>
			<e lid="5">4,4,4</e>
			<e lid="6">4,4,4</e>
			<e lid="7">4,4,4</e>
			<e lid="8">4,4,4</e>
			<e lid="9">4,4,4</e>
			<e lid="10">4,4,4</e>
			<e lid="11">4,4,4</e>
			<e lid="12">4,4,4</e>
			<e lid="13">4,4,4</e>
			<e lid="14">4,4,4</e>
			<e lid="15">4,4,4</e>
			<e lid="16">4,4,4</e>
			<e lid="17">4,4,4</e>
			<e lid="18">4,4,4</e>
			<e lid="19">4,4,4</e>
			<e lid="20">4,4,4</e>
<!-- ... 404 like lines cut -->
		</ElementData>
		<ElementData type="shell thickness" elem_set="Part6">
			<e lid="1">4,4,4</e>
			<e lid="2">4,4,4</e>
			<e lid="3">4,4,4</e>
			<e lid="4">4,4,4</e>
			<e lid="5">4,4,4</e>
			<e lid="6">4,4,4</e>
			<e lid="7">4,4,4</e>
			<e lid="8">4,4,4</e>
			<e lid="9">4,4,4</e>
			<e lid="10">4,4,4</e>
			<e lid="11">4,4,4</e>
			<e lid="12">4,4,4</e>
			<e lid="13">4,4,4</e>
			<e lid="14">4,4,4</e>
			<e lid="15">4,4,4</e>
			<e lid="16">4,4,4</e>
			<e lid="17">4,4,4</e>
			<e lid="18">4,4,4</e>
			<e lid="19">4,4,4</e>
			<e lid="20">4,4,4</e>
<!-- ... 390 like lines cut -->
		</ElementData>
		<ElementData type="shell thickness" elem_set="Part7">
			<e lid="1">4,4,4</e>
			<e lid="2">4,4,4</e>
			<e lid="3">4,4,4</e>
			<e lid="4">4,4,4</e>
			<e lid="5">4,4,4</e>
			<e lid="6">4,4,4</e>
			<e lid="7">4,4,4</e>
			<e lid="8">4,4,4</e>
			<e lid="9">4,4,4</e>
			<e lid="10">4,4,4</e>
			<e lid="11">4,4,4</e>
			<e lid="12">4,4,4</e>
			<e lid="13">4,4,4</e>
			<e lid="14">4,4,4</e>
			<e lid="15">4,4,4</e>
			<e lid="16">4,4,4</e>
			<e lid="17">4,4,4</e>
			<e lid="18">4,4,4</e>
			<e lid="19">4,4,4</e>
			<e lid="20">4,4,4</e>
<!-- ... 398 like lines cut -->
		</ElementData>
		<ElementData type="shell thickness" elem_set="Part8">
			<e lid="1">4,4,4</e>
			<e lid="2">4,4,4</e>
			<e lid="3">4,4,4</e>
			<e lid="4">4,4,4</e>
			<e lid="5">4,4,4</e>
			<e lid="6">4,4,4</e>
			<e lid="7">4,4,4</e>
			<e lid="8">4,4,4</e>
			<e lid="9">4,4,4</e>
			<e lid="10">4,4,4</e>
			<e lid="11">4,4,4</e>
			<e lid="12">4,4,4</e>
			<e lid="13">4,4,4</e>
			<e lid="14">4,4,4</e>
			<e lid="15">4,4,4</e>
			<e lid="16">4,4,4</e>
			<e lid="17">4,4,4</e>
			<e lid="18">4,4,4</e>
			<e lid="19">4,4,4</e>
			<e lid="20">4,4,4</e>
<!-- ... 10038 like lines cut -->
		</ElementData>
	</MeshData>
	<Boundary>
		<bc name="ZeroDisplacement2" node_set="@surface:ZeroDisplacement2" type="zero displacement">
			<x_dof>1</x_dof>
			<y_dof>1</y_dof>
			<z_dof>1</z_dof>
		</bc>
	</Boundary>
	<Loads>
		<surface_load name="BearingLoad1" surface="BearingLoad1" type="bearing load">
			<scale lc="1">1</scale>
			<force>0,-100,0</force>
			<symmetric_stiffness>1</symmetric_stiffness>
			<linear>0</linear>
			<shell_bottom>0</shell_bottom>
			<profile>0</profile>
		</surface_load>
	</Loads>
	<LoadData>
		<load_controller id="1" name="LC1" type="loadcurve">
			<interpolate>LINEAR</interpolate>
			<extend>CONSTANT</extend>
			<points>
				<pt>0,0</pt>
				<pt>1,1</pt>
			</points>
		</load_controller>
	</LoadData>
	<Output>
		<plotfile type="febio">
			<var type="displacement"/>
			<var type="stress"/>
			<var type="relative volume"/>
			<var type="shell displacement"/>
			<var type="shell thickness"/>
			<var type="shell director"/>
			<var type="nodal stress"/>
			<var type="nodal strain"/>
			<var type="shell bottom stress"/>
			<var type="shell top stress"/>
			<var type="shell bottom strain"/>
			<var type="shell top strain"/>
			<var type="shell bottom nodal stress"/>
			<var type="shell top nodal stress"/>
			<var type="shell bottom nodal strain"/>
			<var type="shell top nodal strain"/>
			<var type="shell strain"/>
		</plotfile>
	</Output>
</febio_spec>
