<?xml version="1.0" encoding="ISO-8859-1"?>
<!--
Problem Description:
	Shell disc is fixed on edge and prescribed surface pressure on face.
	Edge is fixed and face is prescribed pressure load of -0.005 at t=1.
Main Features:
	q4eas shells
Secondary Features:
Materials:
	neo-Hookean
Degrees of Freedom: 1014
Results
	Steps Completed: 16
	Equilibrium Iterations: 78
	Right Hand Evaluations: 110
	Siffness Reformations: 78
	Other:
		The maximum z-displacement is 0.699 units at time t=1.
Comments:
-->
<febio_spec version="2.5">
	<Module type="solid"/>
	<Control>
		<time_steps>100</time_steps>
		<step_size>0.01</step_size>
		<max_refs>15</max_refs>
		<max_ups>0</max_ups>
		<diverge_reform>1</diverge_reform>
		<reform_each_time_step>1</reform_each_time_step>
		<dtol>0.001</dtol>
		<etol>0.01</etol>
		<rtol>0</rtol>
		<lstol>0.9</lstol>
		<min_residual>1e-020</min_residual>
		<qnmethod>0</qnmethod>
		<time_stepper>
			<dtmin>0.01</dtmin>
			<dtmax>0.1</dtmax>
			<max_retries>5</max_retries>
			<opt_iter>10</opt_iter>
		</time_stepper>
		<analysis type="static"/>
	</Control>
	<Globals>
		<Constants>
			<T>293</T>
			<R>0.008314</R>
			<Fc>0.0965</Fc>
		</Constants>
	</Globals>
	<Material>
		<material id="1" name="Material2" type="neo-Hookean">
			<density>1</density>
			<E>1</E>
			<v>0.45</v>
		</material>
	</Material>
	<Geometry>
		<Nodes name="sh56">
			<node id="1">-3.3426407e-001,-3.3426407e-001, 0.0000000e+000</node>
			<node id="2">-3.4777878e-001,-2.3185252e-001, 0.0000000e+000</node>
			<node id="3">-3.5718203e-001,-1.1906068e-001, 0.0000000e+000</node>
			<node id="4">-3.6062446e-001, 0.0000000e+000, 0.0000000e+000</node>
			<node id="5">-3.5718203e-001, 1.1906068e-001, 0.0000000e+000</node>
			<node id="6">-3.4777878e-001, 2.3185252e-001, 0.0000000e+000</node>
			<node id="7">-3.3426407e-001, 3.3426407e-001, 0.0000000e+000</node>
			<node id="8">-2.3185252e-001,-3.4777878e-001, 0.0000000e+000</node>
			<node id="9">-2.4284271e-001,-2.4284271e-001, 0.0000000e+000</node>
			<node id="10">-2.5121994e-001,-1.2560997e-001, 0.0000000e+000</node>
			<node id="11">-2.5455844e-001, 0.0000000e+000, 0.0000000e+000</node>
			<node id="12">-2.5121994e-001, 1.2560997e-001, 0.0000000e+000</node>
			<node id="13">-2.4284271e-001, 2.4284271e-001, 0.0000000e+000</node>
			<node id="14">-2.3185252e-001, 3.4777878e-001, 0.0000000e+000</node>
			<node id="15">-1.1906068e-001,-3.5718203e-001, 0.0000000e+000</node>
			<node id="16">-1.2560997e-001,-2.5121994e-001, 0.0000000e+000</node>
			<node id="17">-1.3142136e-001,-1.3142136e-001, 0.0000000e+000</node>
			<node id="18">-1.3435029e-001, 0.0000000e+000, 0.0000000e+000</node>
			<node id="19">-1.3142136e-001, 1.3142136e-001, 0.0000000e+000</node>
			<node id="20">-1.2560997e-001, 2.5121994e-001, 0.0000000e+000</node>
<!-- ... 173 like lines cut -->
		</Nodes>
		<Elements type="q4eas" mat="1" name="Part1">
			<elem id="1">     1,     8,     9,     2</elem>
			<elem id="2">     8,    15,    16,     9</elem>
			<elem id="3">    15,    22,    23,    16</elem>
			<elem id="4">    22,    29,    30,    23</elem>
			<elem id="5">    29,    36,    37,    30</elem>
			<elem id="6">    36,    43,    44,    37</elem>
			<elem id="7">     2,     9,    10,     3</elem>
			<elem id="8">     9,    16,    17,    10</elem>
			<elem id="9">    16,    23,    24,    17</elem>
			<elem id="10">    23,    30,    31,    24</elem>
			<elem id="11">    30,    37,    38,    31</elem>
			<elem id="12">    37,    44,    45,    38</elem>
			<elem id="13">     3,    10,    11,     4</elem>
			<elem id="14">    10,    17,    18,    11</elem>
			<elem id="15">    17,    24,    25,    18</elem>
			<elem id="16">    24,    31,    32,    25</elem>
			<elem id="17">    31,    38,    39,    32</elem>
			<elem id="18">    38,    45,    46,    39</elem>
			<elem id="19">     4,    11,    12,     5</elem>
			<elem id="20">    11,    18,    19,    12</elem>
<!-- ... 160 like lines cut -->
		</Elements>
		<NodeSet name="unnamed_set01">
			<node id="4"/>
		</NodeSet>
		<NodeSet name="edge">
			<node id="170"/>
			<node id="171"/>
			<node id="172"/>
			<node id="173"/>
			<node id="174"/>
			<node id="175"/>
			<node id="176"/>
			<node id="177"/>
			<node id="178"/>
			<node id="179"/>
			<node id="180"/>
			<node id="181"/>
			<node id="182"/>
			<node id="183"/>
			<node id="184"/>
			<node id="185"/>
			<node id="186"/>
			<node id="187"/>
			<node id="188"/>
			<node id="189"/>
<!-- ... 4 like lines cut -->
		</NodeSet>
		<NodeSet name="edge">
			<node id="170"/>
			<node id="171"/>
			<node id="172"/>
			<node id="173"/>
			<node id="174"/>
			<node id="175"/>
			<node id="176"/>
			<node id="177"/>
			<node id="178"/>
			<node id="179"/>
			<node id="180"/>
			<node id="181"/>
			<node id="182"/>
			<node id="183"/>
			<node id="184"/>
			<node id="185"/>
			<node id="186"/>
			<node id="187"/>
			<node id="188"/>
			<node id="189"/>
<!-- ... 4 like lines cut -->
		</NodeSet>
		<NodeSet name="unnamed_set01">
			<node id="4"/>
		</NodeSet>
		<Surface name="patchz">
			<quad4 id="1">    25,    32,    33,    26</quad4>
			<quad4 id="2">    32,    39,    40,    33</quad4>
			<quad4 id="3">    39,    46,    47,    40</quad4>
			<quad4 id="4">    26,    33,    34,    27</quad4>
			<quad4 id="5">    33,    40,    41,    34</quad4>
			<quad4 id="6">    40,    47,    48,    41</quad4>
			<quad4 id="7">    27,    34,    35,    28</quad4>
			<quad4 id="8">    34,    41,    42,    35</quad4>
			<quad4 id="9">    41,    48,    49,    42</quad4>
			<quad4 id="10">     4,    52,    53,     3</quad4>
			<quad4 id="11">     3,    53,    54,     2</quad4>
			<quad4 id="12">     2,    54,    55,     1</quad4>
			<quad4 id="13">     1,    55,    56,     8</quad4>
			<quad4 id="14">     8,    56,    57,    15</quad4>
			<quad4 id="15">    15,    57,    58,    22</quad4>
			<quad4 id="16">    52,    76,    77,    53</quad4>
			<quad4 id="17">    53,    77,    78,    54</quad4>
			<quad4 id="18">    54,    78,    79,    55</quad4>
			<quad4 id="19">    55,    79,    80,    56</quad4>
			<quad4 id="20">    56,    80,    81,    57</quad4>
<!-- ... 160 like lines cut -->
		</Surface>
	</Geometry>
	<MeshData>
		<ElementData var="shell thickness" elem_set="Part1">
			<elem lid="1">0.01,0.01,0.01,0.01</elem>
			<elem lid="2">0.01,0.01,0.01,0.01</elem>
			<elem lid="3">0.01,0.01,0.01,0.01</elem>
			<elem lid="4">0.01,0.01,0.01,0.01</elem>
			<elem lid="5">0.01,0.01,0.01,0.01</elem>
			<elem lid="6">0.01,0.01,0.01,0.01</elem>
			<elem lid="7">0.01,0.01,0.01,0.01</elem>
			<elem lid="8">0.01,0.01,0.01,0.01</elem>
			<elem lid="9">0.01,0.01,0.01,0.01</elem>
			<elem lid="10">0.01,0.01,0.01,0.01</elem>
			<elem lid="11">0.01,0.01,0.01,0.01</elem>
			<elem lid="12">0.01,0.01,0.01,0.01</elem>
			<elem lid="13">0.01,0.01,0.01,0.01</elem>
			<elem lid="14">0.01,0.01,0.01,0.01</elem>
			<elem lid="15">0.01,0.01,0.01,0.01</elem>
			<elem lid="16">0.01,0.01,0.01,0.01</elem>
			<elem lid="17">0.01,0.01,0.01,0.01</elem>
			<elem lid="18">0.01,0.01,0.01,0.01</elem>
			<elem lid="19">0.01,0.01,0.01,0.01</elem>
			<elem lid="20">0.01,0.01,0.01,0.01</elem>
<!-- ... 160 like lines cut -->
		</ElementData>
	</MeshData>
	<Boundary>
		<fix bc="x,y,z" node_set="edge"/>
		<fix bc="sx,sy,sz" node_set="edge"/>
	</Boundary>
	<Loads>
		<surface_load type="pressure" surface="patchz">
			<pressure lc="1">1</pressure>
			<linear>0</linear>
		</surface_load>
	</Loads>
	<LoadData>
		<loadcurve id="1" type="smooth">
			<point>0,0</point>
			<point>0.1,-0.00005</point>
			<point>1,-0.005</point>
		</loadcurve>
	</LoadData>
	<Output>
		<plotfile type="febio">
			<var type="displacement"/>
			<var type="relative volume"/>
			<var type="shell director"/>
			<var type="shell strain"/>
			<var type="stress"/>
		</plotfile>
		<logfile>
			<node_data data="z" node_set="unnamed_set01"/>
		</logfile>
	</Output>
</febio_spec>
