<?xml version="1.0" encoding="ISO-8859-1"?>
<!--
A block composed of tetrahedral elements has its left end nodes fixed and
the right end nodes have a displacement of 1 unit in the x-direction at time
t=1.
-->
<febio_spec version="3.0">
	<Module type="solid"/>
	<Control>
		<analysis>STATIC</analysis>
		<time_steps>10</time_steps>
		<step_size>0.1</step_size>
		<solver>
			<max_refs>50</max_refs>
			<max_ups>0</max_ups>
			<diverge_reform>1</diverge_reform>
			<reform_each_time_step>1</reform_each_time_step>
			<dtol>0.001</dtol>
			<etol>0.01</etol>
			<rtol>0</rtol>
			<lstol>0</lstol>
			<min_residual>1e-20</min_residual>
			<qnmethod>BFGS</qnmethod>
			<rhoi>-2</rhoi>
		</solver>
	</Control>
	<Globals>
		<Constants>
			<T>0</T>
			<R>0</R>
			<Fc>0</Fc>
		</Constants>
	</Globals>
	<Material>
		<material id="1" name="Material 1" type="neo-Hookean">
			<density>1</density>
			<E>1</E>
			<v>0.49</v>
		</material>
	</Material>
	<Mesh>
		<Nodes name="Object01">
			<node id="1">-0.5,-0.5,0</node>
			<node id="2">-0.5,-0.5,1</node>
			<node id="3">-0.5,0.5,0</node>
			<node id="4">-0.5,0.5,1</node>
			<node id="5">0.5,-0.5,0</node>
			<node id="6">0.5,-0.5,1</node>
			<node id="7">0.5,0.5,0</node>
			<node id="8">0.5,0.5,1</node>
			<node id="9">-0.5,0,1</node>
			<node id="10">-0.5,0.5,0.5</node>
			<node id="11">-0.5,-0.5,0.5</node>
			<node id="12">-0.5,0,0</node>
			<node id="13">0.5,0,0</node>
			<node id="14">0.5,-0.5,0.5</node>
			<node id="15">0.5,0.5,0.5</node>
			<node id="16">0.5,0,1</node>
			<node id="17">0,0.5,0</node>
			<node id="18">-0.5,0,0.5</node>
			<node id="19">0,-0.5,0</node>
			<node id="20">0,0,0</node>
<!-- ... 472 like lines cut -->
		</Nodes>
		<Elements type="tet4" name="Part5">
			<elem id="1">228,155,83,319</elem>
			<elem id="2">275,281,276,341</elem>
			<elem id="3">252,407,327,466</elem>
			<elem id="4">39,158,157,159</elem>
			<elem id="5">65,239,59,427</elem>
			<elem id="6">140,212,23,389</elem>
			<elem id="7">30,266,166,267</elem>
			<elem id="8">101,245,171,343</elem>
			<elem id="9">88,319,229,320</elem>
			<elem id="10">374,405,183,425</elem>
			<elem id="11">63,263,193,359</elem>
			<elem id="12">148,311,52,335</elem>
			<elem id="13">4,291,80,292</elem>
			<elem id="14">194,266,115,371</elem>
			<elem id="15">198,239,171,241</elem>
			<elem id="16">112,174,64,193</elem>
			<elem id="17">89,219,155,229</elem>
			<elem id="18">73,280,273,438</elem>
			<elem id="19">76,133,44,279</elem>
			<elem id="20">44,203,124,208</elem>
<!-- ... 1998 like lines cut -->
		</Elements>
		<NodeSet name="FixedDisplacement01">
			<n id="1"/>
			<n id="2"/>
			<n id="3"/>
			<n id="4"/>
			<n id="9"/>
			<n id="10"/>
			<n id="11"/>
			<n id="12"/>
			<n id="18"/>
			<n id="24"/>
			<n id="25"/>
			<n id="27"/>
			<n id="28"/>
			<n id="30"/>
			<n id="34"/>
			<n id="35"/>
			<n id="41"/>
			<n id="43"/>
			<n id="49"/>
			<n id="54"/>
<!-- ... 47 like lines cut -->
		</NodeSet>
		<NodeSet name="FixedDisplacement02">
			<n id="1"/>
			<n id="2"/>
			<n id="3"/>
			<n id="4"/>
			<n id="9"/>
			<n id="10"/>
			<n id="11"/>
			<n id="12"/>
			<n id="18"/>
			<n id="24"/>
			<n id="25"/>
			<n id="27"/>
			<n id="28"/>
			<n id="30"/>
			<n id="34"/>
			<n id="35"/>
			<n id="41"/>
			<n id="43"/>
			<n id="49"/>
			<n id="54"/>
<!-- ... 47 like lines cut -->
		</NodeSet>
		<NodeSet name="FixedDisplacement03">
			<n id="1"/>
			<n id="2"/>
			<n id="3"/>
			<n id="4"/>
			<n id="9"/>
			<n id="10"/>
			<n id="11"/>
			<n id="12"/>
			<n id="18"/>
			<n id="24"/>
			<n id="25"/>
			<n id="27"/>
			<n id="28"/>
			<n id="30"/>
			<n id="34"/>
			<n id="35"/>
			<n id="41"/>
			<n id="43"/>
			<n id="49"/>
			<n id="54"/>
<!-- ... 47 like lines cut -->
		</NodeSet>
		<NodeSet name="FixedDisplacement04">
			<n id="5"/>
			<n id="6"/>
			<n id="7"/>
			<n id="8"/>
			<n id="13"/>
			<n id="14"/>
			<n id="15"/>
			<n id="16"/>
			<n id="22"/>
			<n id="32"/>
			<n id="33"/>
			<n id="38"/>
			<n id="39"/>
			<n id="44"/>
			<n id="47"/>
			<n id="51"/>
			<n id="76"/>
			<n id="83"/>
			<n id="84"/>
			<n id="88"/>
<!-- ... 45 like lines cut -->
		</NodeSet>
		<NodeSet name="FixedDisplacement05">
			<n id="5"/>
			<n id="6"/>
			<n id="7"/>
			<n id="8"/>
			<n id="13"/>
			<n id="14"/>
			<n id="15"/>
			<n id="16"/>
			<n id="22"/>
			<n id="32"/>
			<n id="33"/>
			<n id="38"/>
			<n id="39"/>
			<n id="44"/>
			<n id="47"/>
			<n id="51"/>
			<n id="76"/>
			<n id="83"/>
			<n id="84"/>
			<n id="88"/>
<!-- ... 45 like lines cut -->
		</NodeSet>
		<NodeSet name="PrescribedBC225">
			<n id="5"/>
			<n id="6"/>
			<n id="7"/>
			<n id="8"/>
			<n id="13"/>
			<n id="14"/>
			<n id="15"/>
			<n id="16"/>
			<n id="22"/>
			<n id="32"/>
			<n id="33"/>
			<n id="38"/>
			<n id="39"/>
			<n id="44"/>
			<n id="47"/>
			<n id="51"/>
			<n id="76"/>
			<n id="83"/>
			<n id="84"/>
			<n id="88"/>
<!-- ... 45 like lines cut -->
		</NodeSet>
		<ElementSet name="unnamed_set01">
			<e id="205"/>
		</ElementSet>
	</Mesh>
	<MeshDomains>
		<SolidDomain name="Part5" mat="Material 1" elem_type="ut4">
			<alpha>0.05</alpha>
			<iso_stab>0</iso_stab>
		</SolidDomain>
	</MeshDomains>
	<Boundary>
		<bc name="FixedDisplacement01" type="fix" node_set="FixedDisplacement01">
			<dofs>z</dofs>
		</bc>
		<bc name="FixedDisplacement02" type="fix" node_set="FixedDisplacement02">
			<dofs>y</dofs>
		</bc>
		<bc name="FixedDisplacement03" type="fix" node_set="FixedDisplacement03">
			<dofs>x</dofs>
		</bc>
		<bc name="FixedDisplacement04" type="fix" node_set="FixedDisplacement04">
			<dofs>z</dofs>
		</bc>
		<bc name="FixedDisplacement05" type="fix" node_set="FixedDisplacement05">
			<dofs>y</dofs>
		</bc>
		<bc name="PrescribedBC225" type="prescribe" node_set="PrescribedBC225">
			<dof>x</dof>
			<scale lc="1">1</scale>
			<relative>0</relative>
		</bc>
	</Boundary>
	<LoadData>
		<load_controller id="1" type="loadcurve">
			<interpolate>SMOOTH</interpolate>
			<points>
				<point>0,0</point>
				<point>1,1</point>
			</points>
		</load_controller>
	</LoadData>
	<Output>
		<plotfile type="febio">
			<var type="displacement"/>
			<var type="stress"/>
		</plotfile>
		<logfile>
			<element_data data="Ex" elem_set="unnamed_set01"/>
		</logfile>
	</Output>
</febio_spec>
