<?xml version="1.0" encoding="ISO-8859-1"?>
<!--
Unconfined compression stress-relaxation of triphasic material whose solid matrix
consists of a spherical fiber distribution.  A two-step analysis is performed, where the
first step is a steady-state analysis needed to produce equilibrium free swelling by raising
the fixed charged density from zero to the final desired value.  The second step is a
transient analysis where the compressive displacement prescribed on the top surface
is relative to the free-swelling state.
-->
<febio_spec version="3.0">
	<Module type="solute"/>
	<Globals>
		<Constants>
			<T>293</T>
			<R>8.3144e-06</R>
			<Fc>9.65e-05</Fc>
		</Constants>
		<Solutes>
			<solute id="1" name="Na">
				<charge_number>1</charge_number>
				<molar_mass>1</molar_mass>
				<density>1</density>
			</solute>
			<solute id="2" name="Cl">
				<charge_number>-1</charge_number>
				<molar_mass>1</molar_mass>
				<density>1</density>
			</solute>
		</Solutes>
	</Globals>
	<Material>
		<material id="1" name="Triphasic" type="triphasic">
			<phi0>0.2</phi0>
			<fixed_charge_density lc="2">1</fixed_charge_density>
			<solid type="solid mixture">
				<density>1</density>
				<solid type="neo-Hookean">
					<E>1e-06</E>
					<v>0</v>
				</solid>
				<solid type="ellipsoidal fiber distribution">
					<beta>2.5,2.5,2.5</beta>
					<ksi>4,4,4</ksi>
				</solid>
			</solid>
			<permeability type="perm-const-iso">
				<perm>0.000914</perm>
			</permeability>
			<osmotic_coefficient type="osm-coef-const">
				<osmcoef>1</osmcoef>
			</osmotic_coefficient>
			<solute sol="1">
				<diffusivity type="diff-const-iso">
					<free_diff>0.0006</free_diff>
					<diff>0.0005</diff>
				</diffusivity>
				<solubility type="solub-const">
					<solub>1</solub>
				</solubility>
			</solute>
			<solute sol="2">
				<diffusivity type="diff-const-iso">
					<free_diff>0.0009</free_diff>
					<diff>0.0008</diff>
				</diffusivity>
				<solubility type="solub-const">
					<solub>1</solub>
				</solubility>
			</solute>
		</material>
	</Material>
	<Mesh>
		<Nodes name="Object01">
			<node id="1">0,0,0</node>
			<node id="2">0.5503981,0,0</node>
			<node id="3">0.53982235,0.10737734,0</node>
			<node id="4">0.50850154,0.21062823,0</node>
			<node id="5">0.4576393,0.3057848,0</node>
			<node id="6">0.38919023,0.38919022,0</node>
			<node id="7">0.30578481,0.45763929,0</node>
			<node id="8">0.21062824,0.50850153,0</node>
			<node id="9">0.10737736,0.53982235,0</node>
			<node id="10">1.474786e-08,0.5503981,0</node>
			<node id="11">1.0017245,0,0</node>
			<node id="12">0.98247669,0.19542676,0</node>
			<node id="13">0.9254728,0.38334338,0</node>
			<node id="14">0.83290352,0.55652833,0</node>
			<node id="15">0.70832623,0.70832621,0</node>
			<node id="16">0.55652835,0.83290351,0</node>
			<node id="17">0.3833434,0.92547279,0</node>
			<node id="18">0.19542679,0.98247668,0</node>
			<node id="19">2.6841105e-08,1.0017245,0</node>
			<node id="20">1.3718122,0,0</node>
<!-- ... 342 like lines cut -->
		</Nodes>
		<Elements type="penta6" name="Part9">
			<elem id="1">1,2,3,182,183,184</elem>
			<elem id="2">1,3,4,182,184,185</elem>
			<elem id="3">1,4,5,182,185,186</elem>
			<elem id="4">1,5,6,182,186,187</elem>
			<elem id="5">1,6,7,182,187,188</elem>
			<elem id="6">1,7,8,182,188,189</elem>
			<elem id="7">1,8,9,182,189,190</elem>
			<elem id="8">1,9,10,182,190,191</elem>
		</Elements>
		<Elements type="hex8" name="Part9(2)">
			<elem id="9">2,11,12,3,183,192,193,184</elem>
			<elem id="10">3,12,13,4,184,193,194,185</elem>
			<elem id="11">4,13,14,5,185,194,195,186</elem>
			<elem id="12">5,14,15,6,186,195,196,187</elem>
			<elem id="13">6,15,16,7,187,196,197,188</elem>
			<elem id="14">7,16,17,8,188,197,198,189</elem>
			<elem id="15">8,17,18,9,189,198,199,190</elem>
			<elem id="16">9,18,19,10,190,199,200,191</elem>
			<elem id="17">11,20,21,12,192,201,202,193</elem>
			<elem id="18">12,21,22,13,193,202,203,194</elem>
			<elem id="19">13,22,23,14,194,203,204,195</elem>
			<elem id="20">14,23,24,15,195,204,205,196</elem>
			<elem id="21">15,24,25,16,196,205,206,197</elem>
			<elem id="22">16,25,26,17,197,206,207,198</elem>
			<elem id="23">17,26,27,18,198,207,208,199</elem>
			<elem id="24">18,27,28,19,199,208,209,200</elem>
			<elem id="25">20,29,30,21,201,210,211,202</elem>
			<elem id="26">21,30,31,22,202,211,212,203</elem>
			<elem id="27">22,31,32,23,203,212,213,204</elem>
			<elem id="28">23,32,33,24,204,213,214,205</elem>
<!-- ... 132 like lines cut -->
		</Elements>
		<NodeSet name="FixedDisplacement01">
			<n id="1"/>
			<n id="10"/>
			<n id="19"/>
			<n id="28"/>
			<n id="37"/>
			<n id="46"/>
			<n id="55"/>
			<n id="64"/>
			<n id="73"/>
			<n id="82"/>
			<n id="91"/>
			<n id="100"/>
			<n id="109"/>
			<n id="118"/>
			<n id="127"/>
			<n id="136"/>
			<n id="145"/>
			<n id="154"/>
			<n id="163"/>
			<n id="172"/>
<!-- ... 22 like lines cut -->
		</NodeSet>
		<NodeSet name="FixedDisplacement02">
			<n id="1"/>
			<n id="2"/>
			<n id="11"/>
			<n id="20"/>
			<n id="29"/>
			<n id="38"/>
			<n id="47"/>
			<n id="56"/>
			<n id="65"/>
			<n id="74"/>
			<n id="83"/>
			<n id="92"/>
			<n id="101"/>
			<n id="110"/>
			<n id="119"/>
			<n id="128"/>
			<n id="137"/>
			<n id="146"/>
			<n id="155"/>
			<n id="164"/>
<!-- ... 22 like lines cut -->
		</NodeSet>
		<NodeSet name="FixedDisplacement03">
			<n id="1"/>
			<n id="2"/>
			<n id="3"/>
			<n id="4"/>
			<n id="5"/>
			<n id="6"/>
			<n id="7"/>
			<n id="8"/>
			<n id="9"/>
			<n id="10"/>
			<n id="11"/>
			<n id="12"/>
			<n id="13"/>
			<n id="14"/>
			<n id="15"/>
			<n id="16"/>
			<n id="17"/>
			<n id="18"/>
			<n id="19"/>
			<n id="20"/>
<!-- ... 161 like lines cut -->
		</NodeSet>
		<NodeSet name="PrescribedBC230">
			<n id="173"/>
			<n id="174"/>
			<n id="175"/>
			<n id="176"/>
			<n id="177"/>
			<n id="178"/>
			<n id="179"/>
			<n id="180"/>
			<n id="181"/>
			<n id="354"/>
			<n id="355"/>
			<n id="356"/>
			<n id="357"/>
			<n id="358"/>
			<n id="359"/>
			<n id="360"/>
			<n id="361"/>
			<n id="362"/>
		</NodeSet>
		<NodeSet name="PrescribedBC231">
			<n id="173"/>
			<n id="174"/>
			<n id="175"/>
			<n id="176"/>
			<n id="177"/>
			<n id="178"/>
			<n id="179"/>
			<n id="180"/>
			<n id="181"/>
			<n id="354"/>
			<n id="355"/>
			<n id="356"/>
			<n id="357"/>
			<n id="358"/>
			<n id="359"/>
			<n id="360"/>
			<n id="361"/>
			<n id="362"/>
		</NodeSet>
		<NodeSet name="PrescribedBC232">
			<n id="173"/>
			<n id="174"/>
			<n id="175"/>
			<n id="176"/>
			<n id="177"/>
			<n id="178"/>
			<n id="179"/>
			<n id="180"/>
			<n id="181"/>
			<n id="354"/>
			<n id="355"/>
			<n id="356"/>
			<n id="357"/>
			<n id="358"/>
			<n id="359"/>
			<n id="360"/>
			<n id="361"/>
			<n id="362"/>
		</NodeSet>
		<NodeSet name="InitialConcentration01">
			<n id="1"/>
			<n id="2"/>
			<n id="3"/>
			<n id="4"/>
			<n id="5"/>
			<n id="6"/>
			<n id="7"/>
			<n id="8"/>
			<n id="9"/>
			<n id="10"/>
			<n id="11"/>
			<n id="12"/>
			<n id="13"/>
			<n id="14"/>
			<n id="15"/>
			<n id="16"/>
			<n id="17"/>
			<n id="18"/>
			<n id="19"/>
			<n id="20"/>
<!-- ... 342 like lines cut -->
		</NodeSet>
		<NodeSet name="InitialFluidPressure01">
			<n id="1"/>
			<n id="2"/>
			<n id="3"/>
			<n id="4"/>
			<n id="5"/>
			<n id="6"/>
			<n id="7"/>
			<n id="8"/>
			<n id="9"/>
			<n id="10"/>
			<n id="11"/>
			<n id="12"/>
			<n id="13"/>
			<n id="14"/>
			<n id="15"/>
			<n id="16"/>
			<n id="17"/>
			<n id="18"/>
			<n id="19"/>
			<n id="20"/>
<!-- ... 342 like lines cut -->
		</NodeSet>
		<NodeSet name="PrescribedBC233">
			<n id="182"/>
			<n id="183"/>
			<n id="184"/>
			<n id="185"/>
			<n id="186"/>
			<n id="187"/>
			<n id="188"/>
			<n id="189"/>
			<n id="190"/>
			<n id="191"/>
			<n id="192"/>
			<n id="193"/>
			<n id="194"/>
			<n id="195"/>
			<n id="196"/>
			<n id="197"/>
			<n id="198"/>
			<n id="199"/>
			<n id="200"/>
			<n id="201"/>
<!-- ... 161 like lines cut -->
		</NodeSet>
		<ElementSet name="unnamed_set01">
			<e id="61"/>
		</ElementSet>
	</Mesh>
	<MeshDomains>
		<SolidDomain name="Part9" mat="Triphasic"/>
		<SolidDomain name="Part9(2)" mat="Triphasic"/>
	</MeshDomains>
	<Boundary>
		<bc name="FixedDisplacement01" type="fix" node_set="FixedDisplacement01">
			<dofs>x</dofs>
		</bc>
		<bc name="FixedDisplacement02" type="fix" node_set="FixedDisplacement02">
			<dofs>y</dofs>
		</bc>
		<bc name="FixedDisplacement03" type="fix" node_set="FixedDisplacement03">
			<dofs>z</dofs>
		</bc>
		<bc name="PrescribedBC230" type="prescribe" node_set="PrescribedBC230">
			<dof>p</dof>
			<scale lc="3">1</scale>
			<relative>0</relative>
		</bc>
		<bc name="PrescribedBC231" type="prescribe" node_set="PrescribedBC231">
			<dof>c1</dof>
			<scale lc="4">1</scale>
			<relative>0</relative>
		</bc>
		<bc name="PrescribedBC232" type="prescribe" node_set="PrescribedBC232">
			<dof>c2</dof>
			<scale lc="5">1</scale>
			<relative>0</relative>
		</bc>
	</Boundary>
	<Initial>
		<ic type="init_dof" node_set="InitialConcentration01">
			<dof>c1</dof>
			<value>150</value>
		</ic>
		<ic type="init_dof" node_set="InitialConcentration01">
			<dof>c2</dof>
			<value>150</value>
		</ic>
		<ic type="init_dof" node_set="InitialFluidPressure01">
			<dof>p</dof>
			<value>-0.730836</value>
		</ic>
	</Initial>
	<Step>
		<step id="1" name="Step01">
			<Control>
				<analysis>STEADY-STATE</analysis>
				<time_steps>4</time_steps>
				<step_size>0.25</step_size>
				<solver>
					<max_refs>15</max_refs>
					<max_ups>0</max_ups>
					<diverge_reform>1</diverge_reform>
					<reform_each_time_step>1</reform_each_time_step>
					<dtol>0.001</dtol>
					<etol>0.01</etol>
					<rtol>0</rtol>
					<ptol>0.01</ptol>
					<ctol>0.01</ctol>
					<lstol>0.9</lstol>
					<min_residual>1e-20</min_residual>
					<qnmethod>BROYDEN</qnmethod>
					<symmetric_stiffness>0</symmetric_stiffness>
				</solver>
				<time_stepper>
					<dtmin>0.01</dtmin>
					<dtmax>0.25</dtmax>
					<max_retries>5</max_retries>
					<opt_iter>10</opt_iter>
				</time_stepper>
			</Control>
		</step>
		<step id="2" name="Step02">
			<Control>
				<analysis>TRANSIENT</analysis>
				<time_steps>20010</time_steps>
				<step_size>0.1</step_size>
				<solver>
					<max_refs>15</max_refs>
					<max_ups>0</max_ups>
					<diverge_reform>1</diverge_reform>
					<reform_each_time_step>1</reform_each_time_step>
					<dtol>0.001</dtol>
					<etol>0.01</etol>
					<rtol>0</rtol>
					<ptol>0.01</ptol>
					<ctol>0.01</ctol>
					<lstol>0.9</lstol>
					<min_residual>1e-20</min_residual>
					<qnmethod>BROYDEN</qnmethod>
					<symmetric_stiffness>0</symmetric_stiffness>
				</solver>
				<time_stepper>
					<dtmin>0.01</dtmin>
					<dtmax lc="1"></dtmax>
					<max_retries>5</max_retries>
					<opt_iter>10</opt_iter>
				</time_stepper>
			</Control>
			<Boundary>
				<bc name="PrescribedBC233" type="prescribe" node_set="PrescribedBC233">
					<dof>z</dof>
					<scale lc="6">1</scale>
					<relative>1</relative>
				</bc>
			</Boundary>
		</step>
	</Step>
	<LoadData>
		<load_controller id="1" type="loadcurve">
			<interpolate>STEP</interpolate>
			<points>
				<point>0,0</point>
				<point>1,1</point>
				<point>201,20</point>
				<point>401,20</point>
				<point>2000,100</point>
			</points>
		</load_controller>
		<load_controller id="2" type="loadcurve">
			<interpolate>LINEAR</interpolate>
			<points>
				<point>0,0</point>
				<point>1,-80</point>
			</points>
		</load_controller>
		<load_controller id="3" type="loadcurve">
			<interpolate>STEP</interpolate>
			<points>
				<point>0,0</point>
				<point>1,-0.730836</point>
			</points>
		</load_controller>
		<load_controller id="4" type="loadcurve">
			<interpolate>STEP</interpolate>
			<points>
				<point>0,0</point>
				<point>1,150</point>
			</points>
		</load_controller>
		<load_controller id="5" type="loadcurve">
			<interpolate>STEP</interpolate>
			<points>
				<point>0,0</point>
				<point>1,150</point>
			</points>
		</load_controller>
		<load_controller id="6" type="loadcurve">
			<interpolate>LINEAR</interpolate>
			<points>
				<point>0,0</point>
				<point>1,0</point>
				<point>201,-0.1</point>
			</points>
		</load_controller>
	</LoadData>
	<Output>
		<plotfile type="febio">
			<var type="current density"/>
			<var type="displacement"/>
			<var type="relative volume"/>
			<var type="stress"/>
			<var type="effective fluid pressure"/>
			<var type="fluid pressure"/>
			<var type="fluid flux"/>
			<var type="effective solute concentration"/>
			<var type="electric potential"/>
			<var type="fixed charge density"/>
			<var type="solute concentration"/>
			<var type="solute flux"/>
		</plotfile>
		<logfile>
			<element_data data="sz" elem_set="unnamed_set01"/>
		</logfile>
	</Output>
</febio_spec>
