<?xml version="1.0" encoding="ISO-8859-1"?>
<!--
1/4 symmetrical representation of the compression of a billet by a rigid wall
with a z-displacement of 0.4 units at time t=1.
-->
<febio_spec version="3.0">
	<Module type="solid"/>
	<Control>
		<analysis>STATIC</analysis>
		<time_steps>10</time_steps>
		<step_size>0.1</step_size>
		<solver>
			<max_refs>15</max_refs>
			<max_ups>10</max_ups>
			<diverge_reform>1</diverge_reform>
			<reform_each_time_step>1</reform_each_time_step>
			<dtol>0.001</dtol>
			<etol>0.01</etol>
			<rtol>0</rtol>
			<lstol>0.9</lstol>
			<min_residual>1e-20</min_residual>
			<qnmethod>BFGS</qnmethod>
			<rhoi>-2</rhoi>
		</solver>
		<time_stepper>
			<dtmin>0.01</dtmin>
			<dtmax>0.1</dtmax>
			<max_retries>5</max_retries>
			<opt_iter>10</opt_iter>
		</time_stepper>
	</Control>
	<Globals>
		<Constants>
			<T>293</T>
			<R>8.314e-06</R>
			<Fc>9.65e-05</Fc>
		</Constants>
	</Globals>
	<Material>
		<material id="1" name="Material 2" type="neo-Hookean">
			<density>1</density>
			<E>1</E>
			<v>0.49</v>
		</material>
	</Material>
	<Mesh>
		<Nodes name="Object01">
			<node id="1">0,-0.5,-0.05</node>
			<node id="2">0.05,-0.5,-0.05</node>
			<node id="3">0.1,-0.5,-0.05</node>
			<node id="4">0.15,-0.5,-0.05</node>
			<node id="5">0.2,-0.5,-0.05</node>
			<node id="6">0.25,-0.5,-0.05</node>
			<node id="7">0.3,-0.5,-0.05</node>
			<node id="8">0.35,-0.5,-0.05</node>
			<node id="9">0.4,-0.5,-0.05</node>
			<node id="10">0.45,-0.5,-0.05</node>
			<node id="11">0.5,-0.5,-0.05</node>
			<node id="12">0,-0.45,-0.05</node>
			<node id="13">0.05,-0.45,-0.05</node>
			<node id="14">0.1,-0.45,-0.05</node>
			<node id="15">0.15,-0.45,-0.05</node>
			<node id="16">0.2,-0.45,-0.05</node>
			<node id="17">0.25,-0.45,-0.05</node>
			<node id="18">0.3,-0.45,-0.05</node>
			<node id="19">0.35,-0.45,-0.05</node>
			<node id="20">0.4,-0.45,-0.05</node>
<!-- ... 1062 like lines cut -->
		</Nodes>
		<Elements type="hex8" name="Part16">
			<elem id="1">1,2,13,12,122,123,134,133</elem>
			<elem id="2">2,3,14,13,123,124,135,134</elem>
			<elem id="3">3,4,15,14,124,125,136,135</elem>
			<elem id="4">4,5,16,15,125,126,137,136</elem>
			<elem id="5">5,6,17,16,126,127,138,137</elem>
			<elem id="6">6,7,18,17,127,128,139,138</elem>
			<elem id="7">7,8,19,18,128,129,140,139</elem>
			<elem id="8">8,9,20,19,129,130,141,140</elem>
			<elem id="9">9,10,21,20,130,131,142,141</elem>
			<elem id="10">10,11,22,21,131,132,143,142</elem>
			<elem id="11">12,13,24,23,133,134,145,144</elem>
			<elem id="12">13,14,25,24,134,135,146,145</elem>
			<elem id="13">14,15,26,25,135,136,147,146</elem>
			<elem id="14">15,16,27,26,136,137,148,147</elem>
			<elem id="15">16,17,28,27,137,138,149,148</elem>
			<elem id="16">17,18,29,28,138,139,150,149</elem>
			<elem id="17">18,19,30,29,139,140,151,150</elem>
			<elem id="18">19,20,31,30,140,141,152,151</elem>
			<elem id="19">20,21,32,31,141,142,153,152</elem>
			<elem id="20">21,22,33,32,142,143,154,153</elem>
<!-- ... 480 like lines cut -->
		</Elements>
		<NodeSet name="FixedDisplacement01">
			<n id="1"/>
			<n id="2"/>
			<n id="3"/>
			<n id="4"/>
			<n id="5"/>
			<n id="6"/>
			<n id="7"/>
			<n id="8"/>
			<n id="9"/>
			<n id="10"/>
			<n id="11"/>
			<n id="12"/>
			<n id="13"/>
			<n id="14"/>
			<n id="15"/>
			<n id="16"/>
			<n id="17"/>
			<n id="18"/>
			<n id="19"/>
			<n id="20"/>
<!-- ... 1062 like lines cut -->
		</NodeSet>
		<NodeSet name="FixedDisplacement02">
			<n id="1"/>
			<n id="12"/>
			<n id="23"/>
			<n id="34"/>
			<n id="45"/>
			<n id="56"/>
			<n id="67"/>
			<n id="78"/>
			<n id="89"/>
			<n id="100"/>
			<n id="111"/>
			<n id="122"/>
			<n id="133"/>
			<n id="144"/>
			<n id="155"/>
			<n id="166"/>
			<n id="177"/>
			<n id="188"/>
			<n id="199"/>
			<n id="210"/>
<!-- ... 62 like lines cut -->
		</NodeSet>
		<NodeSet name="FixedDisplacement03">
			<n id="111"/>
			<n id="112"/>
			<n id="113"/>
			<n id="114"/>
			<n id="115"/>
			<n id="116"/>
			<n id="117"/>
			<n id="118"/>
			<n id="119"/>
			<n id="120"/>
			<n id="121"/>
			<n id="232"/>
			<n id="233"/>
			<n id="234"/>
			<n id="235"/>
			<n id="236"/>
			<n id="237"/>
			<n id="238"/>
			<n id="239"/>
			<n id="240"/>
<!-- ... 42 like lines cut -->
		</NodeSet>
		<Surface name="RigidWall01">
			<quad4 id="1">1041,1042,1063,1062</quad4>
			<quad4 id="2">1042,1043,1064,1063</quad4>
			<quad4 id="3">1043,1044,1065,1064</quad4>
			<quad4 id="4">1044,1045,1066,1065</quad4>
			<quad4 id="5">1045,1046,1067,1066</quad4>
			<quad4 id="6">1046,1047,1068,1067</quad4>
			<quad4 id="7">1047,1048,1069,1068</quad4>
			<quad4 id="8">1048,1049,1070,1069</quad4>
			<quad4 id="9">1049,1050,1071,1070</quad4>
			<quad4 id="10">1051,1052,1073,1072</quad4>
			<quad4 id="11">1050,1051,1072,1071</quad4>
			<quad4 id="12">1052,1053,1074,1073</quad4>
			<quad4 id="13">1053,1054,1075,1074</quad4>
			<quad4 id="14">1054,1055,1076,1075</quad4>
			<quad4 id="15">1055,1056,1077,1076</quad4>
			<quad4 id="16">1056,1057,1078,1077</quad4>
			<quad4 id="17">1057,1058,1079,1078</quad4>
			<quad4 id="18">1058,1059,1080,1079</quad4>
			<quad4 id="19">1059,1060,1081,1080</quad4>
			<quad4 id="20">1060,1061,1082,1081</quad4>
		</Surface>
		<ElementSet name="unnamed_set01">
			<e id="480"/>
		</ElementSet>
	</Mesh>
	<MeshDomains>
		<SolidDomain name="Part16" mat="Material 2"/>
	</MeshDomains>
	<Boundary>
		<bc name="FixedDisplacement01" type="fix" node_set="FixedDisplacement01">
			<dofs>z</dofs>
		</bc>
		<bc name="FixedDisplacement02" type="fix" node_set="FixedDisplacement02">
			<dofs>x</dofs>
		</bc>
		<bc name="FixedDisplacement03" type="fix" node_set="FixedDisplacement03">
			<dofs>y</dofs>
		</bc>
	</Boundary>
	<Contact>
		<contact type="rigid_wall" name="RigidWall01" surface="RigidWall01">
			<laugon>0</laugon>
			<tolerance>0.01</tolerance>
			<penalty>1000</penalty>
			<offset lc="1">1</offset>
			<plane>0,1,0,-1</plane>
		</contact>
	</Contact>
	<LoadData>
		<load_controller id="1" type="loadcurve">
			<interpolate>LINEAR</interpolate>
			<points>
				<point>0,0</point>
				<point>1,0.4</point>
			</points>
		</load_controller>
	</LoadData>
	<Output>
		<plotfile type="febio">
			<var type="displacement"/>
			<var type="reaction forces"/>
			<var type="relative volume"/>
			<var type="stress"/>
		</plotfile>
		<logfile>
			<element_data data="sy" elem_set="unnamed_set01"/>
		</logfile>
	</Output>
</febio_spec>
