<?xml version="1.0" encoding="ISO-8859-1"?>
<febio_spec version="1.0">
	<Control>
		<title></title>
		<time_steps>10</time_steps>
		<step_size>0.1</step_size>
		<max_refs>15</max_refs>
		<max_ups>10</max_ups>
		<dtol>0.001</dtol>
		<etol>0.01</etol>
		<rtol>0</rtol>
		<lstol>0.9</lstol>
		<time_stepper>
			<dtmin>0.01</dtmin>
			<dtmax>0.1</dtmax>
			<max_retries>5</max_retries>
			<opt_iter>10</opt_iter>
		</time_stepper>
	</Control>
	<Material>
		<material id="1" name="Material 5" type="Mooney-Rivlin">
			<c1>1</c1>
			<c2>0</c2>
			<k>1</k>
		</material>
		<material id="2" name="Material 6" type="rigid body">
			<density>1</density>
			<trans_x type="fixed"></trans_x>
			<trans_y type="fixed"></trans_y>
			<trans_z type="fixed"></trans_z>
			<rot_x type="prescribed" lc="1">1</rot_x>
			<rot_y type="fixed"></rot_y>
			<rot_z type="fixed"></rot_z>
		</material>
	</Material>
	<Geometry>
		<Nodes>
			<node id="1"> -5.0000000e+00, -5.0000000e-01,  0.0000000e+00</node>
			<node id="2"> -5.0000000e+00, -5.0000000e-01,  1.6666667e-01</node>
			<node id="3"> -5.0000000e+00, -5.0000000e-01,  3.3333333e-01</node>
			<node id="4"> -5.0000000e+00, -5.0000000e-01,  5.0000000e-01</node>
			<node id="5"> -5.0000000e+00, -5.0000000e-01,  6.6666667e-01</node>
			<node id="6"> -5.0000000e+00, -5.0000000e-01,  8.3333333e-01</node>
			<node id="7"> -5.0000000e+00, -5.0000000e-01,  1.0000000e+00</node>
			<node id="8"> -5.0000000e+00, -3.3333333e-01,  0.0000000e+00</node>
			<node id="9"> -5.0000000e+00, -3.3333333e-01,  1.6666667e-01</node>
			<node id="10"> -5.0000000e+00, -3.3333333e-01,  3.3333333e-01</node>
			<node id="11"> -5.0000000e+00, -3.3333333e-01,  5.0000000e-01</node>
			<node id="12"> -5.0000000e+00, -3.3333333e-01,  6.6666667e-01</node>
			<node id="13"> -5.0000000e+00, -3.3333333e-01,  8.3333333e-01</node>
			<node id="14"> -5.0000000e+00, -3.3333333e-01,  1.0000000e+00</node>
			<node id="15"> -5.0000000e+00, -1.6666667e-01,  0.0000000e+00</node>
			<node id="16"> -5.0000000e+00, -1.6666667e-01,  1.6666667e-01</node>
			<node id="17"> -5.0000000e+00, -1.6666667e-01,  3.3333333e-01</node>
			<node id="18"> -5.0000000e+00, -1.6666667e-01,  5.0000000e-01</node>
			<node id="19"> -5.0000000e+00, -1.6666667e-01,  6.6666667e-01</node>
			<node id="20"> -5.0000000e+00, -1.6666667e-01,  8.3333333e-01</node>
<!-- ... 2977 like lines cut -->
		</Nodes>
		<Elements>
			<hex8 id="1" mat="1">     1,    50,    57,     8,     2,    51,    58,     9</hex8>
			<hex8 id="2" mat="1">     2,    51,    58,     9,     3,    52,    59,    10</hex8>
			<hex8 id="3" mat="1">     3,    52,    59,    10,     4,    53,    60,    11</hex8>
			<hex8 id="4" mat="1">     4,    53,    60,    11,     5,    54,    61,    12</hex8>
			<hex8 id="5" mat="1">     5,    54,    61,    12,     6,    55,    62,    13</hex8>
			<hex8 id="6" mat="1">     6,    55,    62,    13,     7,    56,    63,    14</hex8>
			<hex8 id="7" mat="1">     8,    57,    64,    15,     9,    58,    65,    16</hex8>
			<hex8 id="8" mat="1">     9,    58,    65,    16,    10,    59,    66,    17</hex8>
			<hex8 id="9" mat="1">    10,    59,    66,    17,    11,    60,    67,    18</hex8>
			<hex8 id="10" mat="1">    11,    60,    67,    18,    12,    61,    68,    19</hex8>
			<hex8 id="11" mat="1">    12,    61,    68,    19,    13,    62,    69,    20</hex8>
			<hex8 id="12" mat="1">    13,    62,    69,    20,    14,    63,    70,    21</hex8>
			<hex8 id="13" mat="1">    15,    64,    71,    22,    16,    65,    72,    23</hex8>
			<hex8 id="14" mat="1">    16,    65,    72,    23,    17,    66,    73,    24</hex8>
			<hex8 id="15" mat="1">    17,    66,    73,    24,    18,    67,    74,    25</hex8>
			<hex8 id="16" mat="1">    18,    67,    74,    25,    19,    68,    75,    26</hex8>
			<hex8 id="17" mat="1">    19,    68,    75,    26,    20,    69,    76,    27</hex8>
			<hex8 id="18" mat="1">    20,    69,    76,    27,    21,    70,    77,    28</hex8>
			<hex8 id="19" mat="1">    22,    71,    78,    29,    23,    72,    79,    30</hex8>
			<hex8 id="20" mat="1">    23,    72,    79,    30,    24,    73,    80,    31</hex8>
<!-- ... 2141 like lines cut -->
		</Elements>
	</Geometry>
	<Boundary>
		<fix>
			<node id="1" bc="xyz"></node>
			<node id="2" bc="xyz"></node>
			<node id="3" bc="xyz"></node>
			<node id="4" bc="xyz"></node>
			<node id="5" bc="xyz"></node>
			<node id="6" bc="xyz"></node>
			<node id="7" bc="xyz"></node>
			<node id="8" bc="xyz"></node>
			<node id="9" bc="xyz"></node>
			<node id="10" bc="xyz"></node>
			<node id="11" bc="xyz"></node>
			<node id="12" bc="xyz"></node>
			<node id="13" bc="xyz"></node>
			<node id="14" bc="xyz"></node>
			<node id="15" bc="xyz"></node>
			<node id="16" bc="xyz"></node>
			<node id="17" bc="xyz"></node>
			<node id="18" bc="xyz"></node>
			<node id="19" bc="xyz"></node>
			<node id="20" bc="xyz"></node>
<!-- ... 29 like lines cut -->
		</fix>
		<contact type="rigid">
			<node id="2941" rb="2"></node>
			<node id="2942" rb="2"></node>
			<node id="2943" rb="2"></node>
			<node id="2944" rb="2"></node>
			<node id="2945" rb="2"></node>
			<node id="2946" rb="2"></node>
			<node id="2947" rb="2"></node>
			<node id="2948" rb="2"></node>
			<node id="2949" rb="2"></node>
			<node id="2950" rb="2"></node>
			<node id="2951" rb="2"></node>
			<node id="2952" rb="2"></node>
			<node id="2953" rb="2"></node>
			<node id="2954" rb="2"></node>
			<node id="2955" rb="2"></node>
			<node id="2956" rb="2"></node>
			<node id="2957" rb="2"></node>
			<node id="2958" rb="2"></node>
			<node id="2959" rb="2"></node>
			<node id="2960" rb="2"></node>
<!-- ... 29 like lines cut -->
		</contact>
	</Boundary>
	<LoadData>
		<loadcurve id="1">
			<loadpoint>0,0</loadpoint>
			<loadpoint>1,12.56636</loadpoint>
		</loadcurve>
	</LoadData>
</febio_spec>
