<?xml version="1.0" encoding="ISO-8859-1"?>
<febio_spec version="3.0">
	<Module type="solid"/>
	<Control>
		<analysis>STATIC</analysis>
		<time_steps>5</time_steps>
		<step_size>1</step_size>
		<solver>
			<max_refs>15</max_refs>
			<max_ups>10</max_ups>
			<diverge_reform>1</diverge_reform>
			<reform_each_time_step>1</reform_each_time_step>
			<dtol>0.001</dtol>
			<etol>0.01</etol>
			<rtol>0</rtol>
			<lstol>0.9</lstol>
			<min_residual>1e-20</min_residual>
			<qnmethod>BFGS</qnmethod>
			<rhoi>0</rhoi>
		</solver>
	</Control>
	<Globals>
		<Constants>
			<T>0</T>
			<R>0</R>
			<Fc>0</Fc>
		</Constants>
	</Globals>
	<Material>
		<material id="1" name="Material1" type="neo-Hookean">
			<density>1</density>
			<E>1</E>
			<v>0.3</v>
		</material>
		<material id="2" name="Material2" type="neo-Hookean">
			<density>1</density>
			<E>1</E>
			<v>0.3</v>
		</material>
	</Material>
	<Mesh>
		<Nodes name="Object1">
			<node id="1">-2.5,-0.5,0</node>
			<node id="2">-2.5,-0.5,0.1</node>
			<node id="3">-2.5,-0.25,0</node>
			<node id="4">-2.5,-0.25,0.1</node>
			<node id="5">-2.5,0,0</node>
			<node id="6">-2.5,0,0.1</node>
			<node id="7">-2.5,0.25,0</node>
			<node id="8">-2.5,0.25,0.1</node>
			<node id="9">-2.5,0.5,0</node>
			<node id="10">-2.5,0.5,0.1</node>
			<node id="11">-2.25,-0.5,0</node>
			<node id="12">-2.25,-0.5,0.1</node>
			<node id="13">-2.25,-0.25,0</node>
			<node id="14">-2.25,-0.25,0.1</node>
			<node id="15">-2.25,0,0</node>
			<node id="16">-2.25,0,0.1</node>
			<node id="17">-2.25,0.25,0</node>
			<node id="18">-2.25,0.25,0.1</node>
			<node id="19">-2.25,0.5,0</node>
			<node id="20">-2.25,0.5,0.1</node>
<!-- ... 190 like lines cut -->
		</Nodes>
		<Elements type="hex8" name="Part1">
			<elem id="1">1,11,13,3,2,12,14,4</elem>
			<elem id="2">3,13,15,5,4,14,16,6</elem>
			<elem id="3">5,15,17,7,6,16,18,8</elem>
			<elem id="4">7,17,19,9,8,18,20,10</elem>
			<elem id="5">11,21,23,13,12,22,24,14</elem>
			<elem id="6">13,23,25,15,14,24,26,16</elem>
			<elem id="7">15,25,27,17,16,26,28,18</elem>
			<elem id="8">17,27,29,19,18,28,30,20</elem>
			<elem id="9">21,31,33,23,22,32,34,24</elem>
			<elem id="10">23,33,35,25,24,34,36,26</elem>
			<elem id="11">25,35,37,27,26,36,38,28</elem>
			<elem id="12">27,37,39,29,28,38,40,30</elem>
			<elem id="13">31,41,43,33,32,42,44,34</elem>
			<elem id="14">33,43,45,35,34,44,46,36</elem>
			<elem id="15">35,45,47,37,36,46,48,38</elem>
			<elem id="16">37,47,49,39,38,48,50,40</elem>
			<elem id="17">41,51,53,43,42,52,54,44</elem>
			<elem id="18">43,53,55,45,44,54,56,46</elem>
			<elem id="19">45,55,57,47,46,56,58,48</elem>
			<elem id="20">47,57,59,49,48,58,60,50</elem>
<!-- ... 20 like lines cut -->
		</Elements>
		<Elements type="hex8" name="Part3">
			<elem id="41">101,111,113,103,102,112,114,104</elem>
			<elem id="42">103,113,115,105,104,114,116,106</elem>
			<elem id="43">105,115,117,107,106,116,118,108</elem>
			<elem id="44">107,117,119,109,108,118,120,110</elem>
			<elem id="45">111,121,123,113,112,122,124,114</elem>
			<elem id="46">113,123,125,115,114,124,126,116</elem>
			<elem id="47">115,125,127,117,116,126,128,118</elem>
			<elem id="48">117,127,129,119,118,128,130,120</elem>
			<elem id="49">121,131,133,123,122,132,134,124</elem>
			<elem id="50">123,133,135,125,124,134,136,126</elem>
			<elem id="51">125,135,137,127,126,136,138,128</elem>
			<elem id="52">127,137,139,129,128,138,140,130</elem>
			<elem id="53">131,141,143,133,132,142,144,134</elem>
			<elem id="54">133,143,145,135,134,144,146,136</elem>
			<elem id="55">135,145,147,137,136,146,148,138</elem>
			<elem id="56">137,147,149,139,138,148,150,140</elem>
			<elem id="57">141,151,153,143,142,152,154,144</elem>
			<elem id="58">143,153,155,145,144,154,156,146</elem>
			<elem id="59">145,155,157,147,146,156,158,148</elem>
			<elem id="60">147,157,159,149,148,158,160,150</elem>
<!-- ... 20 like lines cut -->
		</Elements>
		<Surface name="FixedDisplacement2">
			<quad4 id="1">9,7,8,10</quad4>
			<quad4 id="2">7,5,6,8</quad4>
			<quad4 id="3">5,3,4,6</quad4>
			<quad4 id="4">3,1,2,4</quad4>
		</Surface>
		<Surface name="SurfaceTraction1">
			<quad4 id="1">201,203,204,202</quad4>
			<quad4 id="2">203,205,206,204</quad4>
			<quad4 id="3">205,207,208,206</quad4>
			<quad4 id="4">207,209,210,208</quad4>
		</Surface>
		<ElementSet name="FixedDisplacement1">
			<e id="1"/>
			<e id="2"/>
			<e id="3"/>
			<e id="4"/>
			<e id="5"/>
			<e id="6"/>
			<e id="7"/>
			<e id="8"/>
			<e id="9"/>
			<e id="10"/>
			<e id="11"/>
			<e id="12"/>
			<e id="13"/>
			<e id="14"/>
			<e id="15"/>
			<e id="16"/>
			<e id="17"/>
			<e id="18"/>
			<e id="19"/>
			<e id="20"/>
<!-- ... 60 like lines cut -->
		</ElementSet>
	</Mesh>
	<MeshDomains>
		<SolidDomain name="Part1" mat="Material1"/>
		<SolidDomain name="Part3" mat="Material2"/>
	</MeshDomains>
	<MeshAdaptor>
		<mesh_adaptor type="hex_refine2d" elem_set="Part1">
			<max_iters>1</max_iters>
			<max_value>0.01</max_value>
			<criterion type="relative error">
				<data type="stress"/>
			</criterion>
		</mesh_adaptor>
	</MeshAdaptor>
	<Boundary>
		<bc name="FixedDisplacement1" type="fix" node_set="@elem_set:FixedDisplacement1">
			<dofs>z</dofs>
		</bc>
		<bc name="FixedDisplacement2" type="fix" node_set="@surface:FixedDisplacement2">
			<dofs>x,y</dofs>
		</bc>
	</Boundary>
	<Loads>
		<surface_load name="SurfaceTraction1" type="traction" surface="SurfaceTraction1">
			<scale>0.001</scale>
			<traction>0,-1,0</traction>
		</surface_load>
	</Loads>
	<LoadData>
		<load_controller id="1" type="loadcurve">
			<interpolate>SMOOTH</interpolate>
			<points>
				<point>0,0</point>
				<point>1,1</point>
			</points>
		</load_controller>
	</LoadData>
	<Output>
		<plotfile type="febio">
			<var type="displacement"/>
			<var type="relative volume"/>
			<var type="stress"/>
			<var type="stress error"/>
		</plotfile>
	</Output>
</febio_spec>
