<?xml version="1.0" encoding="ISO-8859-1"?>
<febio_spec version="3.0">
	<Module type="solid"/>
	<Control>
		<analysis>STATIC</analysis>
		<time_steps>10</time_steps>
		<step_size>0.1</step_size>
		<solver>
			<max_refs>15</max_refs>
			<max_ups>10</max_ups>
			<diverge_reform>1</diverge_reform>
			<reform_each_time_step>1</reform_each_time_step>
			<dtol>0.001</dtol>
			<etol>0.01</etol>
			<rtol>0</rtol>
			<lstol>0.9</lstol>
			<min_residual>1e-20</min_residual>
			<qnmethod>BFGS</qnmethod>
			<rhoi>0</rhoi>
		</solver>
	</Control>
	<Globals>
		<Constants>
			<T>0</T>
			<R>0</R>
			<Fc>0</Fc>
		</Constants>
	</Globals>
	<Material>
		<material id="1" name="Material1" type="solid mixture">
			<solid type="neo-Hookean">
				<density>1</density>
				<E>0.13</E>
				<v>0.3</v>
			</solid>
			<solid type="elastic damage">
				<elastic type="fiber-pow-linear">
					<E>10</E>
					<beta>2.5</beta>
					<lam0>1.1</lam0>
					<fiber type="angles">
						<theta>0</theta>
						<phi>0</phi>
					</fiber>
				</elastic>
				<damage type="CDF log-normal">
					<mu>0.3</mu>
					<sigma>0.1</sigma>
					<Dmax>1</Dmax>
				</damage>
				<criterion type="DC max normal Lagrange strain"/>
			</solid>
		</material>
	</Material>
	<Mesh>
		<Nodes name="Object01">
			<node id="1">  0.0000000e+00,  0.0000000e+00,  0.0000000e+00</node>
			<node id="2">  5.4644661e-01,  0.0000000e+00,  0.0000000e+00</node>
			<node id="3">  9.0000000e-01,  0.0000000e+00,  0.0000000e+00</node>
			<node id="4">  1.0000000e+00,  0.0000000e+00,  0.0000000e+00</node>
			<node id="5">  1.0000000e+00,  3.0000000e-01,  0.0000000e+00</node>
			<node id="6">  9.0000000e-01,  3.0000000e-01,  0.0000000e+00</node>
			<node id="7">  5.4644661e-01,  4.4644661e-01,  0.0000000e+00</node>
			<node id="8">  4.0000000e-01,  8.0000000e-01,  0.0000000e+00</node>
			<node id="9">  4.0000000e-01,  1.8000000e+00,  0.0000000e+00</node>
			<node id="10">  0.0000000e+00,  1.8000000e+00,  0.0000000e+00</node>
			<node id="11">  0.0000000e+00,  8.0000000e-01,  0.0000000e+00</node>
			<node id="12">  0.0000000e+00,  4.4644661e-01,  0.0000000e+00</node>
			<node id="13">  0.0000000e+00,  0.0000000e+00,  1.0000000e-01</node>
			<node id="14">  5.4644661e-01,  0.0000000e+00,  1.0000000e-01</node>
			<node id="15">  9.0000000e-01,  0.0000000e+00,  1.0000000e-01</node>
			<node id="16">  1.0000000e+00,  0.0000000e+00,  1.0000000e-01</node>
			<node id="17">  1.0000000e+00,  3.0000000e-01,  1.0000000e-01</node>
			<node id="18">  9.0000000e-01,  3.0000000e-01,  1.0000000e-01</node>
			<node id="19">  5.4644661e-01,  4.4644661e-01,  1.0000000e-01</node>
			<node id="20">  4.0000000e-01,  8.0000000e-01,  1.0000000e-01</node>
<!-- ... 432 like lines cut -->
		</Nodes>
		<Elements type="hex8" mat="1" name="Part1">
			<elem id="1">     1,    25,   221,    58,    13,    32,   225,    59</elem>
			<elem id="2">    25,    26,   222,   221,    32,    31,   226,   225</elem>
			<elem id="3">    26,    27,   223,   222,    31,    30,   227,   226</elem>
			<elem id="4">    27,    28,   224,   223,    30,    29,   228,   227</elem>
			<elem id="5">    28,     2,    33,   224,    29,    14,    44,   228</elem>
			<elem id="6">    58,   221,   217,    57,    59,   225,   229,    60</elem>
			<elem id="7">   221,   222,   218,   217,   225,   226,   230,   229</elem>
			<elem id="8">   222,   223,   219,   218,   226,   227,   231,   230</elem>
			<elem id="9">   223,   224,   220,   219,   227,   228,   232,   231</elem>
			<elem id="10">   224,    33,    34,   220,   228,    44,    43,   232</elem>
			<elem id="11">    57,   217,   213,    56,    60,   229,   233,    61</elem>
			<elem id="12">   217,   218,   214,   213,   229,   230,   234,   233</elem>
			<elem id="13">   218,   219,   215,   214,   230,   231,   235,   234</elem>
			<elem id="14">   219,   220,   216,   215,   231,   232,   236,   235</elem>
			<elem id="15">   220,    34,    35,   216,   232,    43,    42,   236</elem>
			<elem id="16">    56,   213,   209,    55,    61,   233,   237,    62</elem>
			<elem id="17">   213,   214,   210,   209,   233,   234,   238,   237</elem>
			<elem id="18">   214,   215,   211,   210,   234,   235,   239,   238</elem>
			<elem id="19">   215,   216,   212,   211,   235,   236,   240,   239</elem>
			<elem id="20">   216,    35,    36,   212,   236,    42,    41,   240</elem>
<!-- ... 165 like lines cut -->
		</Elements>
		<NodeSet name="FixedDisplacement1">
			<node id="1"/>
			<node id="2"/>
			<node id="3"/>
			<node id="4"/>
			<node id="13"/>
			<node id="14"/>
			<node id="15"/>
			<node id="16"/>
			<node id="25"/>
			<node id="26"/>
			<node id="27"/>
			<node id="28"/>
			<node id="29"/>
			<node id="30"/>
			<node id="31"/>
			<node id="32"/>
			<node id="65"/>
			<node id="66"/>
			<node id="67"/>
			<node id="68"/>
			<node id="85"/>
			<node id="86"/>
		</NodeSet>
		<NodeSet name="FixedDisplacement2">
			<node id="1"/>
			<node id="10"/>
			<node id="11"/>
			<node id="12"/>
			<node id="13"/>
			<node id="22"/>
			<node id="23"/>
			<node id="24"/>
			<node id="53"/>
			<node id="54"/>
			<node id="55"/>
			<node id="56"/>
			<node id="57"/>
			<node id="58"/>
			<node id="59"/>
			<node id="60"/>
			<node id="61"/>
			<node id="62"/>
			<node id="63"/>
			<node id="64"/>
<!-- ... 42 like lines cut -->
		</NodeSet>
		<NodeSet name="FixedDisplacement3">
			<node id="1"/>
			<node id="2"/>
			<node id="3"/>
			<node id="4"/>
			<node id="5"/>
			<node id="6"/>
			<node id="7"/>
			<node id="8"/>
			<node id="9"/>
			<node id="10"/>
			<node id="11"/>
			<node id="12"/>
			<node id="25"/>
			<node id="26"/>
			<node id="27"/>
			<node id="28"/>
			<node id="33"/>
			<node id="34"/>
			<node id="35"/>
			<node id="36"/>
<!-- ... 206 like lines cut -->
		</NodeSet>
		<NodeSet name="PrescribedDisplacement1">
			<node id="9"/>
			<node id="10"/>
			<node id="21"/>
			<node id="22"/>
			<node id="161"/>
			<node id="162"/>
			<node id="163"/>
			<node id="164"/>
			<node id="165"/>
			<node id="166"/>
			<node id="167"/>
			<node id="168"/>
		</NodeSet>
	</Mesh>
	<MeshDomains>
		<SolidDomain name="Part1" mat="Material1"/>
	</MeshDomains>
	<Boundary>
		<bc type="fix" node_set="FixedDisplacement1">
			<dofs>x,y,z</dofs>
		</bc>
		<bc type="fix" node_set="FixedDisplacement2">
			<dofs>x</dofs>
		</bc>
		<bc type="fix" node_set="FixedDisplacement3">
			<dofs>z</dofs>
		</bc>
		<bc type="prescribe" node_set="PrescribedDisplacement1">
			<dof>y</dof>
			<scale lc="1">1</scale>
			<relative>0</relative>
		</bc>
	</Boundary>
	<LoadData>
		<load_controller id="1" type="loadcurve">
			<interpolate>SMOOTH</interpolate>
			<points>
				<point>0,0</point>
				<point>1,1</point>
			</points>
		</load_controller>
	</LoadData>
	<MeshAdaptor>
		<mesh_adaptor type="erosion">
			<max_iters>2</max_iters>
			<max_elems>10</max_elems>
			<sort>1</sort>
			<criterion type="min-max filter">
				<min>1</min>
				<clamp>0</clamp>
				<data type="damage"/>
			</criterion>
		</mesh_adaptor>
	</MeshAdaptor>
	<Output>
		<plotfile type="febio">
			<var type="displacement"/>
			<var type="stress"/>
			<var type="damage"/>
		</plotfile>
	</Output>
</febio_spec>
