<?xml version="1.0" encoding="ISO-8859-1"?>
<!--
A fixed CFD/FSI wedge with 4000 elements where Newtonian fluid enters from a plug normal velocity boundary load that increases linearly to t=1 and run until t=10. Normal flow constraint at outlet.
-->
<febio_spec version="3.0">
	<Module type="fluid-FSI"/>
	<Control>
		<analysis>DYNAMIC</analysis>
		<time_steps>100</time_steps>
		<step_size>0.1</step_size>
		<solver>
			<max_refs>5</max_refs>
			<max_ups>50</max_ups>
			<diverge_reform>0</diverge_reform>
			<reform_each_time_step>0</reform_each_time_step>
			<dtol>0.001</dtol>
			<vtol>0.001</vtol>
			<ftol>0.001</ftol>
			<etol>0.01</etol>
			<rtol>0.001</rtol>
			<lstol>0.9</lstol>
			<min_residual>1e-20</min_residual>
			<max_residual>1e+20</max_residual>
			<rhoi>0</rhoi>
			<qnmethod>BROYDEN</qnmethod>
			<symmetric_stiffness>0</symmetric_stiffness>
		</solver>
		<time_stepper>
			<dtmin>0.01</dtmin>
			<dtmax>0.1</dtmax>
			<max_retries>5</max_retries>
			<opt_iter>50</opt_iter>
		</time_stepper>
	</Control>
	<Globals>
		<Constants>
			<T>0</T>
			<R>0</R>
			<Fc>0</Fc>
		</Constants>
	</Globals>
	<Material>
		<material id="1" name="Material1" type="biphasic-FSI">
			<phi0>0</phi0>
			<fluid type="fluid">
				<density>1</density>
				<k>1e+09</k>
				<viscous type="Newtonian fluid">
					<mu>0.1</mu>
					<kappa>0</kappa>
				</viscous>
			</fluid>
			<solid type="neo-Hookean">
				<density>0</density>
				<E>1e-09</E>
				<v>0</v>
			</solid>
			<permeability type="perm-const-iso">
				<perm>0</perm>
			</permeability>
		</material>
	</Material>
	<Mesh>
		<Nodes name="Object01">
			<node id="1">-2.8775735e-08,-4.1916465e-09,9.7699626e-15</node>
			<node id="2">-0.012275504,-0.077504266,9.7699626e-15</node>
			<node id="3">-3.5083551e-08,-0.078470368,9.7699626e-15</node>
			<node id="4">-0.023630319,-0.14919571,9.7699626e-15</node>
			<node id="5">-4.091828e-08,-0.15105545,9.7699626e-15</node>
			<node id="6">-0.034133522,-0.21551029,9.7699626e-15</node>
			<node id="7">-4.6315405e-08,-0.21819666,9.7699626e-15</node>
			<node id="8">-0.043848986,-0.27685128,9.7699626e-15</node>
			<node id="9">-5.1307746e-08,-0.28030227,9.7699626e-15</node>
			<node id="10">-0.052835789,-0.3335917,9.7699626e-15</node>
			<node id="11">-5.5925661e-08,-0.33774997,9.7699626e-15</node>
			<node id="12">-0.061148583,-0.38607659,9.7699626e-15</node>
			<node id="13">-6.0197232e-08,-0.39088908,9.7699626e-15</node>
			<node id="14">-0.068837917,-0.4346251,9.7699626e-15</node>
			<node id="15">-6.4148436e-08,-0.44004277,9.7699626e-15</node>
			<node id="16">-0.07595055,-0.47953248,9.7699626e-15</node>
			<node id="17">-6.7803299e-08,-0.48550992,9.7699626e-15</node>
			<node id="18">-0.082529737,-0.52107181,9.7699626e-15</node>
			<node id="19">-7.1184048e-08,-0.52756704,9.7699626e-15</node>
			<node id="20">-0.088615484,-0.55949569,9.7699626e-15</node>
<!-- ... 8161 like lines cut -->
		</Nodes>
		<Elements type="penta6" name="Part1">
			<elem id="1">1,2,3,82,83,84</elem>
			<elem id="2">82,83,84,163,164,165</elem>
			<elem id="3">163,164,165,244,245,246</elem>
			<elem id="4">244,245,246,325,326,327</elem>
			<elem id="5">325,326,327,406,407,408</elem>
			<elem id="6">406,407,408,487,488,489</elem>
			<elem id="7">487,488,489,568,569,570</elem>
			<elem id="8">568,569,570,649,650,651</elem>
			<elem id="9">649,650,651,730,731,732</elem>
			<elem id="10">730,731,732,811,812,813</elem>
			<elem id="11">811,812,813,892,893,894</elem>
			<elem id="12">892,893,894,973,974,975</elem>
			<elem id="13">973,974,975,1054,1055,1056</elem>
			<elem id="14">1054,1055,1056,1135,1136,1137</elem>
			<elem id="15">1135,1136,1137,1216,1217,1218</elem>
			<elem id="16">1216,1217,1218,1297,1298,1299</elem>
			<elem id="17">1297,1298,1299,1378,1379,1380</elem>
			<elem id="18">1378,1379,1380,1459,1460,1461</elem>
			<elem id="19">1459,1460,1461,1540,1541,1542</elem>
			<elem id="20">1540,1541,1542,1621,1622,1623</elem>
<!-- ... 80 like lines cut -->
		</Elements>
		<Elements type="hex8" name="Part1__2">
			<elem id="101">2,4,5,3,83,85,86,84</elem>
			<elem id="102">4,6,7,5,85,87,88,86</elem>
			<elem id="103">6,8,9,7,87,89,90,88</elem>
			<elem id="104">8,10,11,9,89,91,92,90</elem>
			<elem id="105">10,12,13,11,91,93,94,92</elem>
			<elem id="106">12,14,15,13,93,95,96,94</elem>
			<elem id="107">14,16,17,15,95,97,98,96</elem>
			<elem id="108">16,18,19,17,97,99,100,98</elem>
			<elem id="109">18,20,21,19,99,101,102,100</elem>
			<elem id="110">20,22,23,21,101,103,104,102</elem>
			<elem id="111">22,24,25,23,103,105,106,104</elem>
			<elem id="112">24,26,27,25,105,107,108,106</elem>
			<elem id="113">26,28,29,27,107,109,110,108</elem>
			<elem id="114">28,30,31,29,109,111,112,110</elem>
			<elem id="115">30,32,33,31,111,113,114,112</elem>
			<elem id="116">32,34,35,33,113,115,116,114</elem>
			<elem id="117">34,36,37,35,115,117,118,116</elem>
			<elem id="118">36,38,39,37,117,119,120,118</elem>
			<elem id="119">38,40,41,39,119,121,122,120</elem>
			<elem id="120">40,42,43,41,121,123,124,122</elem>
<!-- ... 3880 like lines cut -->
		</Elements>
		<NodeSet name="FixedFluidVelocity1">
			<n id="80"/>
			<n id="81"/>
			<n id="161"/>
			<n id="162"/>
			<n id="242"/>
			<n id="243"/>
			<n id="323"/>
			<n id="324"/>
			<n id="404"/>
			<n id="405"/>
			<n id="485"/>
			<n id="486"/>
			<n id="566"/>
			<n id="567"/>
			<n id="647"/>
			<n id="648"/>
			<n id="728"/>
			<n id="729"/>
			<n id="809"/>
			<n id="810"/>
<!-- ... 182 like lines cut -->
		</NodeSet>
		<NodeSet name="FixedFluidVelocity2">
			<n id="1"/>
			<n id="3"/>
			<n id="5"/>
			<n id="7"/>
			<n id="9"/>
			<n id="11"/>
			<n id="13"/>
			<n id="15"/>
			<n id="17"/>
			<n id="19"/>
			<n id="21"/>
			<n id="23"/>
			<n id="25"/>
			<n id="27"/>
			<n id="29"/>
			<n id="31"/>
			<n id="33"/>
			<n id="35"/>
			<n id="37"/>
			<n id="39"/>
<!-- ... 4121 like lines cut -->
		</NodeSet>
		<NodeSet name="FixedFluidDilatation1">
			<n id="8101"/>
			<n id="8102"/>
			<n id="8103"/>
			<n id="8104"/>
			<n id="8105"/>
			<n id="8106"/>
			<n id="8107"/>
			<n id="8108"/>
			<n id="8109"/>
			<n id="8110"/>
			<n id="8111"/>
			<n id="8112"/>
			<n id="8113"/>
			<n id="8114"/>
			<n id="8115"/>
			<n id="8116"/>
			<n id="8117"/>
			<n id="8118"/>
			<n id="8119"/>
			<n id="8120"/>
<!-- ... 61 like lines cut -->
		</NodeSet>
		<NodeSet name="FixedFluidVelocity3">
			<n id="8101"/>
			<n id="8102"/>
			<n id="8103"/>
			<n id="8104"/>
			<n id="8105"/>
			<n id="8106"/>
			<n id="8107"/>
			<n id="8108"/>
			<n id="8109"/>
			<n id="8110"/>
			<n id="8111"/>
			<n id="8112"/>
			<n id="8113"/>
			<n id="8114"/>
			<n id="8115"/>
			<n id="8116"/>
			<n id="8117"/>
			<n id="8118"/>
			<n id="8119"/>
			<n id="8120"/>
<!-- ... 61 like lines cut -->
		</NodeSet>
		<NodeSet name="FixedFluidDilatation2">
			<n id="80"/>
			<n id="81"/>
		</NodeSet>
		<NodeSet name="FixedDisplacement1">
			<n id="1"/>
			<n id="2"/>
			<n id="3"/>
			<n id="4"/>
			<n id="5"/>
			<n id="6"/>
			<n id="7"/>
			<n id="8"/>
			<n id="9"/>
			<n id="10"/>
			<n id="11"/>
			<n id="12"/>
			<n id="13"/>
			<n id="14"/>
			<n id="15"/>
			<n id="16"/>
			<n id="17"/>
			<n id="18"/>
			<n id="19"/>
			<n id="20"/>
<!-- ... 8161 like lines cut -->
		</NodeSet>
		<Surface name="FluidNormalVelocity1">
			<tri3 id="1">1,3,2</tri3>
			<quad4 id="2">3,5,4,2</quad4>
			<quad4 id="3">5,7,6,4</quad4>
			<quad4 id="4">7,9,8,6</quad4>
			<quad4 id="5">9,11,10,8</quad4>
			<quad4 id="6">11,13,12,10</quad4>
			<quad4 id="7">13,15,14,12</quad4>
			<quad4 id="8">15,17,16,14</quad4>
			<quad4 id="9">17,19,18,16</quad4>
			<quad4 id="10">19,21,20,18</quad4>
			<quad4 id="11">21,23,22,20</quad4>
			<quad4 id="12">23,25,24,22</quad4>
			<quad4 id="13">25,27,26,24</quad4>
			<quad4 id="14">27,29,28,26</quad4>
			<quad4 id="15">29,31,30,28</quad4>
			<quad4 id="16">31,33,32,30</quad4>
			<quad4 id="17">33,35,34,32</quad4>
			<quad4 id="18">35,37,36,34</quad4>
			<quad4 id="19">37,39,38,36</quad4>
			<quad4 id="20">39,41,40,38</quad4>
			<quad4 id="21">41,43,42,40</quad4>
<!-- ... 19 like lines cut -->
		</Surface>
		<Surface name="NormalFluidFlow1">
			<tri3 id="1">8101,8102,8103</tri3>
			<quad4 id="2">8102,8104,8105,8103</quad4>
			<quad4 id="3">8104,8106,8107,8105</quad4>
			<quad4 id="4">8106,8108,8109,8107</quad4>
			<quad4 id="5">8108,8110,8111,8109</quad4>
			<quad4 id="6">8110,8112,8113,8111</quad4>
			<quad4 id="7">8112,8114,8115,8113</quad4>
			<quad4 id="8">8114,8116,8117,8115</quad4>
			<quad4 id="9">8116,8118,8119,8117</quad4>
			<quad4 id="10">8118,8120,8121,8119</quad4>
			<quad4 id="11">8120,8122,8123,8121</quad4>
			<quad4 id="12">8122,8124,8125,8123</quad4>
			<quad4 id="13">8124,8126,8127,8125</quad4>
			<quad4 id="14">8126,8128,8129,8127</quad4>
			<quad4 id="15">8128,8130,8131,8129</quad4>
			<quad4 id="16">8130,8132,8133,8131</quad4>
			<quad4 id="17">8132,8134,8135,8133</quad4>
			<quad4 id="18">8134,8136,8137,8135</quad4>
			<quad4 id="19">8136,8138,8139,8137</quad4>
			<quad4 id="20">8138,8140,8141,8139</quad4>
			<quad4 id="21">8140,8142,8143,8141</quad4>
<!-- ... 19 like lines cut -->
		</Surface>
	</Mesh>
	<MeshDomains>
		<SolidDomain name="Part1" mat="Material1"/>
		<SolidDomain name="Part1__2" mat="Material1"/>
	</MeshDomains>
	<Boundary>
		<bc name="FixedFluidVelocity01" type="fix" node_set="FixedFluidVelocity1">
			<dofs>wx,wy,wz</dofs>
		</bc>
		<bc name="FixedFluidVelocity02" type="fix" node_set="FixedFluidVelocity2">
			<dofs>wx</dofs>
		</bc>
		<bc name="FixedFluidDilatation01" type="fix" node_set="FixedFluidDilatation1">
			<dofs>ef</dofs>
		</bc>
		<bc name="FixedFluidDilatation02" type="fix" node_set="FixedFluidDilatation2">
			<dofs>ef</dofs>
		</bc>
		<bc name="FixedDisplacement01" type="fix" node_set="FixedDisplacement1">
			<dofs>x,y,z</dofs>
		</bc>
	</Boundary>
	<Loads>
		<surface_load name="FluidNormalVelocity01" type="fluid normal velocity" surface="FluidNormalVelocity1">
			<velocity lc="1">-1</velocity>
			<prescribe_nodal_velocities>1</prescribe_nodal_velocities>
			<parabolic>0</parabolic>
		</surface_load>
	</Loads>
	<Constraints>
		<constraint type="normal fluid flow" name="NormalFluidFlow1" surface="NormalFluidFlow1">
			<laugon>0</laugon>
			<tol>0.2</tol>
			<penalty>1000</penalty>
			<minaug>0</minaug>
			<maxaug>10</maxaug>
			<rhs>0</rhs>
		</constraint>
	</Constraints>
	<LoadData>
		<load_controller id="1" type="loadcurve">
			<interpolate>SMOOTH</interpolate>
			<points>
				<point>0,0</point>
				<point>1,1</point>
			</points>
		</load_controller>
	</LoadData>
	<Output>
		<plotfile type="febio">
			<var type="acceleration"/>
			<var type="displacement"/>
			<var type="velocity"/>
			<var type="fluid pressure"/>
			<var type="fluid acceleration"/>
			<var type="fluid density"/>
			<var type="fluid dilatation"/>
			<var type="fluid rate of deformation"/>
			<var type="fluid stress"/>
			<var type="fluid velocity"/>
			<var type="fluid volume ratio"/>
			<var type="fluid vorticity"/>
			<var type="nodal fluid velocity"/>
			<var type="fluid flux"/>
			<var type="nodal fluid flux"/>
		</plotfile>
	</Output>
</febio_spec>
