<?xml version="1.0" encoding="ISO-8859-1"?>
<!--
Problem Description:
	BFSI Taylor slip problem that models Couette flow over a rigid porous layer. Tangential velocity prescribed on top of fluid layer, with no slip wall at bottom of porous domain, where an interface is shared between the two. 0 pressure and displacement throughout. Tet10
Main Features:
	BFSI
	porous solid
	permeability
	tangential velocity
	Tet10
Secondary Features:
	Broyden
	no ref each step
	no diverge reform
	Newtonian fluid
	PostBL
Materials:
	NeoHookean
	Poroelastic
	Newtonian
	Constant Permeability
Degrees of Freedom: 48936
Results:
	Steps Completed: 10
	Equilibrium Iterations: 20
	Right Hand Evaluations: 30
	Siffness Reformations: 1
	Other:
		The xnodal flux for node 220 at time t=1 is 0.834038
Comments:
	Similar examples seen in results of
       Shim JJ, Maas SA, Weiss JA, Ateshian GA. (2021) J Biomech Eng, In Press.
-->
<febio_spec version="3.0">
	<Module type="fluid-FSI"/>
	<Control>
		<analysis>DYNAMIC</analysis>
		<time_steps>10</time_steps>
		<step_size>0.1</step_size>
		<solver>
			<max_refs>5</max_refs>
			<max_ups>50</max_ups>
			<diverge_reform>0</diverge_reform>
			<reform_each_time_step>0</reform_each_time_step>
			<dtol>0</dtol>
			<vtol>0.001</vtol>
			<ftol>0</ftol>
			<etol>0.01</etol>
			<rtol>0.001</rtol>
			<lstol>0.9</lstol>
			<min_residual>1e-29</min_residual>
			<max_residual>1e+20</max_residual>
			<rhoi>0</rhoi>
			<qnmethod>BROYDEN</qnmethod>
		</solver>
		<time_stepper>
			<dtmin>0.01</dtmin>
			<dtmax>0.1</dtmax>
			<max_retries>9</max_retries>
			<opt_iter>50</opt_iter>
		</time_stepper>
	</Control>
	<Globals>
		<Constants>
			<T>0</T>
			<R>0</R>
			<Fc>0</Fc>
		</Constants>
	</Globals>
	<Material>
		<material id="1" name="Material1" type="biphasic-FSI">
			<phi0>0</phi0>
			<fluid type="fluid">
				<density>0</density>
				<k>1e+12</k>
				<viscous type="Newtonian fluid">
					<mu>1</mu>
					<kappa>0</kappa>
				</viscous>
			</fluid>
			<solid type="neo-Hookean">
				<density>0</density>
				<E>1e-09</E>
				<v>0</v>
			</solid>
			<permeability type="perm-const-iso">
				<perm>0</perm>
			</permeability>
		</material>
		<material id="2" name="Material2" type="biphasic-FSI">
			<phi0>0.5</phi0>
			<fluid type="fluid">
				<density>0</density>
				<k>1e+12</k>
				<viscous type="Newtonian fluid">
					<mu>0.25</mu>
					<kappa>0</kappa>
				</viscous>
			</fluid>
			<solid type="neo-Hookean">
				<density>0</density>
				<E>6.75e+09</E>
				<v>0.125</v>
			</solid>
			<permeability type="perm-const-iso">
				<perm>1</perm>
			</permeability>
		</material>
	</Material>
	<Mesh>
		<Nodes name="Object01">
			<node id="1">-0.5,0.025,0</node>
			<node id="2">-0.5,0.025,0.1</node>
			<node id="3">-0.5,0.05,0</node>
			<node id="4">-0.5,0.05,0.1</node>
			<node id="5">-0.5,0.075,0</node>
			<node id="6">-0.5,0.075,0.1</node>
			<node id="7">-0.5,0.1,0</node>
			<node id="8">-0.5,0.1,0.1</node>
			<node id="9">-0.5,0.125,0</node>
			<node id="10">-0.5,0.125,0.1</node>
			<node id="11">-0.5,0.15,0</node>
			<node id="12">-0.5,0.15,0.1</node>
			<node id="13">-0.5,0.175,0</node>
			<node id="14">-0.5,0.175,0.1</node>
			<node id="15">-0.5,0.2,0</node>
			<node id="16">-0.5,0.2,0.1</node>
			<node id="17">-0.5,0.225,0</node>
			<node id="18">-0.5,0.225,0.1</node>
			<node id="19">-0.5,0.25,0</node>
			<node id="20">-0.5,0.25,0.1</node>
<!-- ... 11911 like lines cut -->
		</Nodes>
		<Elements type="tet10" name="Part3">
			<elem id="1">1,689,21,690,2059,2165,2060,2061,5418,2166</elem>
			<elem id="2">1,21,23,24,2060,2167,2062,2063,2168,2187</elem>
			<elem id="3">1,21,22,690,2060,2169,2064,2061,2166,2180</elem>
			<elem id="4">1,690,22,2,2061,2180,2064,2065,2070,2071</elem>
			<elem id="5">1,22,24,2,2064,2181,2063,2065,2071,2072</elem>
			<elem id="6">1,22,21,24,2064,2169,2060,2063,2181,2168</elem>
			<elem id="7">1,23,26,24,2062,2188,2066,2063,2187,2194</elem>
			<elem id="8">1,26,23,25,2066,2188,2062,2067,2197,2189</elem>
			<elem id="9">1,24,26,2,2063,2194,2066,2065,2072,2073</elem>
			<elem id="10">1,26,4,2,2066,2082,2068,2065,2073,2074</elem>
			<elem id="11">1,26,25,3,2066,2197,2067,2069,2075,2076</elem>
			<elem id="12">1,26,3,4,2066,2075,2069,2068,2082,2077</elem>
			<elem id="13">3,25,28,26,2076,2198,2078,2075,2197,2204</elem>
			<elem id="14">3,28,25,27,2078,2198,2076,2079,2207,2199</elem>
			<elem id="15">3,26,28,4,2075,2204,2078,2077,2082,2083</elem>
			<elem id="16">3,28,6,4,2078,2092,2080,2077,2083,2084</elem>
			<elem id="17">3,28,27,5,2078,2207,2079,2081,2085,2086</elem>
			<elem id="18">3,28,5,6,2078,2085,2081,2080,2092,2087</elem>
			<elem id="19">5,27,30,28,2086,2208,2088,2085,2207,2214</elem>
			<elem id="20">5,30,27,29,2088,2208,2086,2089,2217,2209</elem>
<!-- ... 1660 like lines cut -->
		</Elements>
		<Elements type="tet10" name="Part4">
			<elem id="1681">631,693,696,694,5125,5429,5126,5127,5430,5440</elem>
			<elem id="1682">631,696,693,695,5126,5429,5125,5128,5445,5431</elem>
			<elem id="1683">631,694,696,632,5127,5440,5126,5129,5136,5137</elem>
			<elem id="1684">631,696,634,632,5126,5148,5130,5129,5137,5138</elem>
			<elem id="1685">631,696,695,633,5126,5445,5128,5131,5141,5142</elem>
			<elem id="1686">631,696,633,634,5126,5141,5131,5130,5148,5143</elem>
			<elem id="1687">633,695,698,696,5142,5446,5144,5141,5445,5452</elem>
			<elem id="1688">633,698,695,697,5144,5446,5142,5145,5455,5447</elem>
			<elem id="1689">633,696,698,634,5141,5452,5144,5143,5148,5149</elem>
			<elem id="1690">633,698,636,634,5144,5158,5146,5143,5149,5150</elem>
			<elem id="1691">633,698,697,635,5144,5455,5145,5147,5151,5152</elem>
			<elem id="1692">633,698,635,636,5144,5151,5147,5146,5158,5153</elem>
			<elem id="1693">635,697,700,698,5152,5456,5154,5151,5455,5462</elem>
			<elem id="1694">635,700,697,699,5154,5456,5152,5155,5465,5457</elem>
			<elem id="1695">635,698,700,636,5151,5462,5154,5153,5158,5159</elem>
			<elem id="1696">635,700,638,636,5154,5168,5156,5153,5159,5160</elem>
			<elem id="1697">635,700,699,637,5154,5465,5155,5157,5161,5162</elem>
			<elem id="1698">635,700,637,638,5154,5161,5157,5156,5168,5163</elem>
			<elem id="1699">637,699,702,700,5162,5466,5164,5161,5465,5472</elem>
			<elem id="1700">637,702,699,701,5164,5466,5162,5165,5475,5467</elem>
<!-- ... 4060 like lines cut -->
		</Elements>
		<Surface name="FixedFluidVelocity01">
			<tri6 id="1">692,629,691,5120,5121,5420</tri6>
			<tri6 id="2">630,629,692,5119,5120,5124</tri6>
			<tri6 id="3">752,691,751,5425,5424,5721</tri6>
			<tri6 id="4">692,691,752,5420,5425,5428</tri6>
			<tri6 id="5">812,751,811,5725,5724,6021</tri6>
			<tri6 id="6">752,751,812,5721,5725,5728</tri6>
			<tri6 id="7">872,811,871,6025,6024,6321</tri6>
			<tri6 id="8">812,811,872,6021,6025,6028</tri6>
			<tri6 id="9">932,871,931,6325,6324,6621</tri6>
			<tri6 id="10">872,871,932,6321,6325,6328</tri6>
			<tri6 id="11">992,931,991,6625,6624,6921</tri6>
			<tri6 id="12">932,931,992,6621,6625,6628</tri6>
			<tri6 id="13">1052,991,1051,6925,6924,7221</tri6>
			<tri6 id="14">992,991,1052,6921,6925,6928</tri6>
			<tri6 id="15">1112,1051,1111,7225,7224,7521</tri6>
			<tri6 id="16">1052,1051,1112,7221,7225,7228</tri6>
			<tri6 id="17">1172,1111,1171,7525,7524,7821</tri6>
			<tri6 id="18">1112,1111,1172,7521,7525,7528</tri6>
			<tri6 id="19">1232,1171,1231,7825,7824,8121</tri6>
			<tri6 id="20">1172,1171,1232,7821,7825,7828</tri6>
<!-- ... 20 like lines cut -->
		</Surface>
		<Surface name="FixedFluidVelocity02">
			<tri6 id="1">21,22,690,2169,2180,2166</tri6>
			<tri6 id="2">689,21,690,2165,2166,5418</tri6>
			<tri6 id="3">21,43,44,2170,2288,2172</tri6>
			<tri6 id="4">21,44,22,2172,2182,2169</tri6>
			<tri6 id="5">43,65,66,2290,2404,2292</tri6>
			<tri6 id="6">43,66,44,2292,2299,2288</tri6>
			<tri6 id="7">65,87,88,2406,2520,2408</tri6>
			<tri6 id="8">65,88,66,2408,2415,2404</tri6>
			<tri6 id="9">87,109,110,2522,2636,2524</tri6>
			<tri6 id="10">87,110,88,2524,2531,2520</tri6>
			<tri6 id="11">109,131,132,2638,2752,2640</tri6>
			<tri6 id="12">109,132,110,2640,2647,2636</tri6>
			<tri6 id="13">131,153,154,2754,2868,2756</tri6>
			<tri6 id="14">131,154,132,2756,2763,2752</tri6>
			<tri6 id="15">153,175,176,2870,2984,2872</tri6>
			<tri6 id="16">153,176,154,2872,2879,2868</tri6>
			<tri6 id="17">175,197,198,2986,3100,2988</tri6>
			<tri6 id="18">175,198,176,2988,2995,2984</tri6>
			<tri6 id="19">197,219,220,3102,3216,3104</tri6>
			<tri6 id="20">197,220,198,3104,3111,3100</tri6>
<!-- ... 4132 like lines cut -->
		</Surface>
		<Surface name="FixedFluidVelocity03">
			<tri6 id="1">1,689,690,2059,5418,2061</tri6>
			<tri6 id="2">1,690,2,2061,2070,2065</tri6>
			<tri6 id="3">4,1,2,2068,2065,2074</tri6>
			<tri6 id="4">3,1,4,2069,2068,2077</tri6>
			<tri6 id="5">6,3,4,2080,2077,2084</tri6>
			<tri6 id="6">5,3,6,2081,2080,2087</tri6>
			<tri6 id="7">8,5,6,2090,2087,2094</tri6>
			<tri6 id="8">7,5,8,2091,2090,2097</tri6>
			<tri6 id="9">10,7,8,2100,2097,2104</tri6>
			<tri6 id="10">9,7,10,2101,2100,2107</tri6>
			<tri6 id="11">12,9,10,2110,2107,2114</tri6>
			<tri6 id="12">11,9,12,2111,2110,2117</tri6>
			<tri6 id="13">14,11,12,2120,2117,2124</tri6>
			<tri6 id="14">13,11,14,2121,2120,2127</tri6>
			<tri6 id="15">16,13,14,2130,2127,2134</tri6>
			<tri6 id="16">15,13,16,2131,2130,2137</tri6>
			<tri6 id="17">18,15,16,2140,2137,2144</tri6>
			<tri6 id="18">17,15,18,2141,2140,2147</tri6>
			<tri6 id="19">19,465,473,2155,4460,2157</tri6>
			<tri6 id="20">19,473,20,2157,2164,2161</tri6>
<!-- ... 172 like lines cut -->
		</Surface>
		<Surface name="FixedFluidDilatation01">
			<tri6 id="1">1,689,690,2059,5418,2061</tri6>
			<tri6 id="2">1,690,2,2061,2070,2065</tri6>
			<tri6 id="3">4,1,2,2068,2065,2074</tri6>
			<tri6 id="4">3,1,4,2069,2068,2077</tri6>
			<tri6 id="5">6,3,4,2080,2077,2084</tri6>
			<tri6 id="6">5,3,6,2081,2080,2087</tri6>
			<tri6 id="7">8,5,6,2090,2087,2094</tri6>
			<tri6 id="8">7,5,8,2091,2090,2097</tri6>
			<tri6 id="9">10,7,8,2100,2097,2104</tri6>
			<tri6 id="10">9,7,10,2101,2100,2107</tri6>
			<tri6 id="11">12,9,10,2110,2107,2114</tri6>
			<tri6 id="12">11,9,12,2111,2110,2117</tri6>
			<tri6 id="13">14,11,12,2120,2117,2124</tri6>
			<tri6 id="14">13,11,14,2121,2120,2127</tri6>
			<tri6 id="15">16,13,14,2130,2127,2134</tri6>
			<tri6 id="16">15,13,16,2131,2130,2137</tri6>
			<tri6 id="17">18,15,16,2140,2137,2144</tri6>
			<tri6 id="18">17,15,18,2141,2140,2147</tri6>
			<tri6 id="19">19,465,473,2155,4460,2157</tri6>
			<tri6 id="20">19,473,20,2157,2164,2161</tri6>
<!-- ... 172 like lines cut -->
		</Surface>
		<Surface name="FixedFluidVelocity04">
			<tri6 id="1">42,19,20,2160,2161,2163</tri6>
			<tri6 id="2">41,19,42,2159,2160,2279</tri6>
			<tri6 id="3">64,41,42,2282,2279,2286</tri6>
			<tri6 id="4">63,41,64,2283,2282,2395</tri6>
			<tri6 id="5">86,63,64,2398,2395,2402</tri6>
			<tri6 id="6">85,63,86,2399,2398,2511</tri6>
			<tri6 id="7">108,85,86,2514,2511,2518</tri6>
			<tri6 id="8">107,85,108,2515,2514,2627</tri6>
			<tri6 id="9">130,107,108,2630,2627,2634</tri6>
			<tri6 id="10">129,107,130,2631,2630,2743</tri6>
			<tri6 id="11">152,129,130,2746,2743,2750</tri6>
			<tri6 id="12">151,129,152,2747,2746,2859</tri6>
			<tri6 id="13">174,151,152,2862,2859,2866</tri6>
			<tri6 id="14">173,151,174,2863,2862,2975</tri6>
			<tri6 id="15">196,173,174,2978,2975,2982</tri6>
			<tri6 id="16">195,173,196,2979,2978,3091</tri6>
			<tri6 id="17">218,195,196,3094,3091,3098</tri6>
			<tri6 id="18">217,195,218,3095,3094,3207</tri6>
			<tri6 id="19">240,217,218,3210,3207,3214</tri6>
			<tri6 id="20">239,217,240,3211,3210,3323</tri6>
<!-- ... 20 like lines cut -->
		</Surface>
		<Surface name="FixedDisplacement01">
			<tri6 id="1">21,22,690,2169,2180,2166</tri6>
			<tri6 id="2">689,21,690,2165,2166,5418</tri6>
			<tri6 id="3">21,43,44,2170,2288,2172</tri6>
			<tri6 id="4">21,44,22,2172,2182,2169</tri6>
			<tri6 id="5">43,65,66,2290,2404,2292</tri6>
			<tri6 id="6">43,66,44,2292,2299,2288</tri6>
			<tri6 id="7">65,87,88,2406,2520,2408</tri6>
			<tri6 id="8">65,88,66,2408,2415,2404</tri6>
			<tri6 id="9">87,109,110,2522,2636,2524</tri6>
			<tri6 id="10">87,110,88,2524,2531,2520</tri6>
			<tri6 id="11">109,131,132,2638,2752,2640</tri6>
			<tri6 id="12">109,132,110,2640,2647,2636</tri6>
			<tri6 id="13">131,153,154,2754,2868,2756</tri6>
			<tri6 id="14">131,154,132,2756,2763,2752</tri6>
			<tri6 id="15">153,175,176,2870,2984,2872</tri6>
			<tri6 id="16">153,176,154,2872,2879,2868</tri6>
			<tri6 id="17">175,197,198,2986,3100,2988</tri6>
			<tri6 id="18">175,198,176,2988,2995,2984</tri6>
			<tri6 id="19">197,219,220,3102,3216,3104</tri6>
			<tri6 id="20">197,220,198,3104,3111,3100</tri6>
<!-- ... 4132 like lines cut -->
		</Surface>
		<Surface name="PrescribedFluidVelocity1">
			<tri6 id="1">42,19,20,2160,2161,2163</tri6>
			<tri6 id="2">41,19,42,2159,2160,2279</tri6>
			<tri6 id="3">64,41,42,2282,2279,2286</tri6>
			<tri6 id="4">63,41,64,2283,2282,2395</tri6>
			<tri6 id="5">86,63,64,2398,2395,2402</tri6>
			<tri6 id="6">85,63,86,2399,2398,2511</tri6>
			<tri6 id="7">108,85,86,2514,2511,2518</tri6>
			<tri6 id="8">107,85,108,2515,2514,2627</tri6>
			<tri6 id="9">130,107,108,2630,2627,2634</tri6>
			<tri6 id="10">129,107,130,2631,2630,2743</tri6>
			<tri6 id="11">152,129,130,2746,2743,2750</tri6>
			<tri6 id="12">151,129,152,2747,2746,2859</tri6>
			<tri6 id="13">174,151,152,2862,2859,2866</tri6>
			<tri6 id="14">173,151,174,2863,2862,2975</tri6>
			<tri6 id="15">196,173,174,2978,2975,2982</tri6>
			<tri6 id="16">195,173,196,2979,2978,3091</tri6>
			<tri6 id="17">218,195,196,3094,3091,3098</tri6>
			<tri6 id="18">217,195,218,3095,3094,3207</tri6>
			<tri6 id="19">240,217,218,3210,3207,3214</tri6>
			<tri6 id="20">239,217,240,3211,3210,3323</tri6>
<!-- ... 20 like lines cut -->
		</Surface>
	</Mesh>
	<MeshDomains>
		<SolidDomain name="Part3" mat="Material1"/>
		<SolidDomain name="Part4" mat="Material2"/>
	</MeshDomains>
	<Boundary>
		<bc name="FixedFluidVelocity01" type="fix" node_set="@surface:FixedFluidVelocity01">
			<dofs>wx,wy,wz</dofs>
		</bc>
		<bc name="FixedFluidVelocity02" type="fix" node_set="@surface:FixedFluidVelocity02">
			<dofs>wz</dofs>
		</bc>
		<bc name="FixedFluidVelocity03" type="fix" node_set="@surface:FixedFluidVelocity03">
			<dofs>wy,wz</dofs>
		</bc>
		<bc name="FixedFluidDilatation01" type="fix" node_set="@surface:FixedFluidDilatation01">
			<dofs>ef</dofs>
		</bc>
		<bc name="FixedFluidVelocity04" type="fix" node_set="@surface:FixedFluidVelocity04">
			<dofs>wy,wz</dofs>
		</bc>
		<bc name="FixedDisplacement01" type="fix" node_set="@surface:FixedDisplacement01">
			<dofs>x,y,z</dofs>
		</bc>
		<bc name="PrescribedFluidVelocity1" type="prescribe" node_set="@surface:PrescribedFluidVelocity1">
			<dof>wx</dof>
			<scale lc="1">1</scale>
			<relative>0</relative>
		</bc>
	</Boundary>
	<LoadData>
		<load_controller id="1" type="loadcurve">
			<interpolate>SMOOTH</interpolate>
			<points>
				<point>0,0</point>
				<point>1,1</point>
			</points>
		</load_controller>
	</LoadData>
	<Output>
		<plotfile type="febio">
			<var type="acceleration"/>
			<var type="displacement"/>
			<var type="velocity"/>
			<var type="fluid pressure"/>
			<var type="fluid flux"/>
			<var type="fluid acceleration"/>
			<var type="fluid dilatation"/>
			<var type="fluid rate of deformation"/>
			<var type="fluid stress"/>
			<var type="fluid velocity"/>
			<var type="fluid volume ratio"/>
			<var type="fluid vorticity"/>
			<var type="nodal fluid velocity"/>
			<var type="nodal fluid flux"/>
		</plotfile>
	</Output>
</febio_spec>
