<?xml version="1.0" encoding="ISO-8859-1"?>
<!--
This file was created with FEBio Studio version 1.0.0 



BFSI Generalized Taylor slip problem that models Couette and Poiseuille flow over a deformable porous layer. Tangential velocity prescribed on top of fluid layer, with no slip wall at bottom of porous domain, where an interface is shared between the two. Prescribed pressure and displacement allowed in x direction.

Similar examples seen in results of
   Shim JJ, Maas SA, Weiss JA, Ateshian GA. (2021) J Biomech Eng, In Press.
-->
<!--
Problem Description:
	BFSI Generalized Taylor slip problem that models Couette and Poiseuille flow over a deformable porous layer. Tangential velocity prescribed on top of fluid layer, with no slip wall at bottom of porous domain, where an interface is shared between the two. Prescribed pressure and displacement allowed in x direction.
Main Features:
	BFSI
	porous solid
	permeability
	tangential velocity
	prescribed pressure
	moving boundary
Secondary Features:
	Broyden
	no ref each step
	no diverge reform
	Newtonian fluid
	PostBL
Materials:
	NeoHookean
	Poroelastic
	Newtonian
	Constant Permeability
Degrees of Freedom: 20008
Results:
	Steps Completed: 400
	Equilibrium Iterations: 640
	Right Hand Evaluations: 1415
	Siffness Reformations: 10
	Other:
		The x-displacement for node 1718 at time t=8 is 0.105845
Comments:
	Similar examples seen in results of
       Shim JJ, Maas SA, Weiss JA, Ateshian GA. (2021) J Biomech Eng, In Press.
-->
<febio_spec version="3.0">
	<Module type="fluid-FSI"/>
	<Control>
		<analysis>DYNAMIC</analysis>
		<time_steps>400</time_steps>
		<step_size>0.02</step_size>
		<solver>
			<max_refs>10</max_refs>
			<max_ups>25</max_ups>
			<diverge_reform>0</diverge_reform>
			<reform_each_time_step>0</reform_each_time_step>
			<dtol>0.001</dtol>
			<vtol>0.001</vtol>
			<ftol>0</ftol>
			<etol>0.01</etol>
			<rtol>0.001</rtol>
			<lstol>0.9</lstol>
			<min_residual>1e-22</min_residual>
			<max_residual>1e+20</max_residual>
			<rhoi>0</rhoi>
			<qnmethod>BROYDEN</qnmethod>
		</solver>
		<time_stepper>
			<dtmin>0.002</dtmin>
			<dtmax>0.02</dtmax>
			<max_retries>9</max_retries>
			<opt_iter>100</opt_iter>
		</time_stepper>
	</Control>
	<Globals>
		<Constants>
			<T>0</T>
			<R>0</R>
			<Fc>0</Fc>
		</Constants>
	</Globals>
	<Material>
		<material id="1" name="Material1" type="biphasic-FSI">
			<phi0>0</phi0>
			<fluid type="fluid">
				<density>0</density>
				<k>1e+09</k>
				<viscous type="Newtonian fluid">
					<mu>1</mu>
					<kappa>0</kappa>
				</viscous>
			</fluid>
			<solid type="neo-Hookean">
				<density>0</density>
				<E>1e-12</E>
				<v>0</v>
			</solid>
			<permeability type="perm-const-iso">
				<perm>0</perm>
			</permeability>
		</material>
		<material id="2" name="Material2" type="biphasic-FSI">
			<phi0>0.25</phi0>
			<fluid type="fluid">
				<density>0</density>
				<k>1e+09</k>
				<viscous type="Newtonian fluid">
					<mu>1</mu>
					<kappa>0</kappa>
				</viscous>
			</fluid>
			<solid type="neo-Hookean">
				<density>0</density>
				<E>200</E>
				<v>0</v>
			</solid>
			<permeability type="perm-const-iso">
				<perm>0.005625</perm>
			</permeability>
		</material>
	</Material>
	<Mesh>
		<Nodes name="Object01">
			<node id="1">-0.5,0.0017459625,0</node>
			<node id="2">-0.5,0.0017459625,0.1</node>
			<node id="3">-0.5,0.0036665212,0</node>
			<node id="4">-0.5,0.0036665212,0.1</node>
			<node id="5">-0.5,0.0057791358,0</node>
			<node id="6">-0.5,0.0057791358,0.1</node>
			<node id="7">-0.5,0.0081030119,0</node>
			<node id="8">-0.5,0.0081030119,0.1</node>
			<node id="9">-0.5,0.010659276,0</node>
			<node id="10">-0.5,0.010659276,0.1</node>
			<node id="11">-0.5,0.013471166,0</node>
			<node id="12">-0.5,0.013471166,0.1</node>
			<node id="13">-0.5,0.016564245,0</node>
			<node id="14">-0.5,0.016564245,0.1</node>
			<node id="15">-0.5,0.019966632,0</node>
			<node id="16">-0.5,0.019966632,0.1</node>
			<node id="17">-0.5,0.023709257,0</node>
			<node id="18">-0.5,0.023709257,0.1</node>
			<node id="19">-0.5,0.027826145,0</node>
			<node id="20">-0.5,0.027826145,0.1</node>
<!-- ... 6704 like lines cut -->
		</Nodes>
		<Elements type="hex8" name="Part7">
			<elem id="1">1,43,45,3,2,44,46,4</elem>
			<elem id="2">3,45,47,5,4,46,48,6</elem>
			<elem id="3">5,47,49,7,6,48,50,8</elem>
			<elem id="4">7,49,51,9,8,50,52,10</elem>
			<elem id="5">9,51,53,11,10,52,54,12</elem>
			<elem id="6">11,53,55,13,12,54,56,14</elem>
			<elem id="7">13,55,57,15,14,56,58,16</elem>
			<elem id="8">15,57,59,17,16,58,60,18</elem>
			<elem id="9">17,59,61,19,18,60,62,20</elem>
			<elem id="10">19,61,63,21,20,62,64,22</elem>
			<elem id="11">21,63,65,23,22,64,66,24</elem>
			<elem id="12">23,65,67,25,24,66,68,26</elem>
			<elem id="13">25,67,69,27,26,68,70,28</elem>
			<elem id="14">27,69,71,29,28,70,72,30</elem>
			<elem id="15">29,71,73,31,30,72,74,32</elem>
			<elem id="16">31,73,75,33,32,74,76,34</elem>
			<elem id="17">33,75,77,35,34,76,78,36</elem>
			<elem id="18">35,77,79,37,36,78,80,38</elem>
			<elem id="19">43,85,87,45,44,86,88,46</elem>
			<elem id="20">45,87,89,47,46,88,90,48</elem>
<!-- ... 1100 like lines cut -->
		</Elements>
		<Elements type="hex8" name="Part8">
			<elem id="1121">2377,2459,2461,2379,2378,2460,2462,2380</elem>
			<elem id="1122">2379,2461,2463,2381,2380,2462,2464,2382</elem>
			<elem id="1123">2381,2463,2465,2383,2382,2464,2466,2384</elem>
			<elem id="1124">2383,2465,2467,2385,2384,2466,2468,2386</elem>
			<elem id="1125">2385,2467,2469,2387,2386,2468,2470,2388</elem>
			<elem id="1126">2387,2469,2471,2389,2388,2470,2472,2390</elem>
			<elem id="1127">2389,2471,2473,2391,2390,2472,2474,2392</elem>
			<elem id="1128">2391,2473,2475,2393,2392,2474,2476,2394</elem>
			<elem id="1129">2393,2475,2477,2395,2394,2476,2478,2396</elem>
			<elem id="1130">2395,2477,2479,2397,2396,2478,2480,2398</elem>
			<elem id="1131">2397,2479,2481,2399,2398,2480,2482,2400</elem>
			<elem id="1132">2399,2481,2483,2401,2400,2482,2484,2402</elem>
			<elem id="1133">2401,2483,2485,2403,2402,2484,2486,2404</elem>
			<elem id="1134">2403,2485,2487,2405,2404,2486,2488,2406</elem>
			<elem id="1135">2405,2487,2489,2407,2406,2488,2490,2408</elem>
			<elem id="1136">2407,2489,2491,2409,2408,2490,2492,2410</elem>
			<elem id="1137">2409,2491,2493,2411,2410,2492,2494,2412</elem>
			<elem id="1138">2411,2493,2495,2413,2412,2494,2496,2414</elem>
			<elem id="1139">2413,2495,2497,2415,2414,2496,2498,2416</elem>
			<elem id="1140">2415,2497,2499,2417,2416,2498,2500,2418</elem>
<!-- ... 2100 like lines cut -->
		</Elements>
		<NodeSet name="FixedDisplacement1">
			<n id="1"/>
			<n id="2"/>
			<n id="3"/>
			<n id="4"/>
			<n id="5"/>
			<n id="6"/>
			<n id="7"/>
			<n id="8"/>
			<n id="9"/>
			<n id="10"/>
			<n id="11"/>
			<n id="12"/>
			<n id="13"/>
			<n id="14"/>
			<n id="15"/>
			<n id="16"/>
			<n id="17"/>
			<n id="18"/>
			<n id="19"/>
			<n id="20"/>
<!-- ... 6704 like lines cut -->
		</NodeSet>
		<NodeSet name="FixedDisplacement2">
			<n id="2375"/>
			<n id="2376"/>
			<n id="2457"/>
			<n id="2458"/>
			<n id="2537"/>
			<n id="2538"/>
			<n id="2617"/>
			<n id="2618"/>
			<n id="2697"/>
			<n id="2698"/>
			<n id="2777"/>
			<n id="2778"/>
			<n id="2857"/>
			<n id="2858"/>
			<n id="2937"/>
			<n id="2938"/>
			<n id="3017"/>
			<n id="3018"/>
			<n id="3097"/>
			<n id="3098"/>
<!-- ... 62 like lines cut -->
		</NodeSet>
		<NodeSet name="FixedFluidVelocity1">
			<n id="1"/>
			<n id="2"/>
			<n id="3"/>
			<n id="4"/>
			<n id="5"/>
			<n id="6"/>
			<n id="7"/>
			<n id="8"/>
			<n id="9"/>
			<n id="10"/>
			<n id="11"/>
			<n id="12"/>
			<n id="13"/>
			<n id="14"/>
			<n id="15"/>
			<n id="16"/>
			<n id="17"/>
			<n id="18"/>
			<n id="19"/>
			<n id="20"/>
<!-- ... 6704 like lines cut -->
		</NodeSet>
		<NodeSet name="FixedFluidVelocity2">
			<n id="2375"/>
			<n id="2376"/>
			<n id="2457"/>
			<n id="2458"/>
			<n id="2537"/>
			<n id="2538"/>
			<n id="2617"/>
			<n id="2618"/>
			<n id="2697"/>
			<n id="2698"/>
			<n id="2777"/>
			<n id="2778"/>
			<n id="2857"/>
			<n id="2858"/>
			<n id="2937"/>
			<n id="2938"/>
			<n id="3017"/>
			<n id="3018"/>
			<n id="3097"/>
			<n id="3098"/>
<!-- ... 62 like lines cut -->
		</NodeSet>
		<NodeSet name="PrescribedFluidDilatation1">
			<n id="1"/>
			<n id="2"/>
			<n id="3"/>
			<n id="4"/>
			<n id="5"/>
			<n id="6"/>
			<n id="7"/>
			<n id="8"/>
			<n id="9"/>
			<n id="10"/>
			<n id="11"/>
			<n id="12"/>
			<n id="13"/>
			<n id="14"/>
			<n id="15"/>
			<n id="16"/>
			<n id="17"/>
			<n id="18"/>
			<n id="19"/>
			<n id="20"/>
<!-- ... 6704 like lines cut -->
		</NodeSet>
		<NodeSet name="PrescribedFluidVelocity1">
			<n id="39"/>
			<n id="40"/>
			<n id="81"/>
			<n id="82"/>
			<n id="123"/>
			<n id="124"/>
			<n id="165"/>
			<n id="166"/>
			<n id="207"/>
			<n id="208"/>
			<n id="249"/>
			<n id="250"/>
			<n id="291"/>
			<n id="292"/>
			<n id="333"/>
			<n id="334"/>
			<n id="375"/>
			<n id="376"/>
			<n id="417"/>
			<n id="418"/>
<!-- ... 62 like lines cut -->
		</NodeSet>
	</Mesh>
	<MeshDomains>
		<SolidDomain name="Part7" mat="Material1"/>
		<SolidDomain name="Part8" mat="Material2"/>
	</MeshDomains>
	<Boundary>
		<bc name="FixedDisplacement01" type="fix" node_set="FixedDisplacement1">
			<dofs>y,z</dofs>
		</bc>
		<bc name="FixedDisplacement02" type="fix" node_set="FixedDisplacement2">
			<dofs>x</dofs>
		</bc>
		<bc name="FixedFluidVelocity01" type="fix" node_set="FixedFluidVelocity1">
			<dofs>wy,wz</dofs>
		</bc>
		<bc name="FixedFluidVelocity02" type="fix" node_set="FixedFluidVelocity2">
			<dofs>wx</dofs>
		</bc>
		<bc name="PrescribedFluidDilatation1" type="prescribe" node_set="PrescribedFluidDilatation1">
			<dof>ef</dof>
			<scale lc="1" type="math">1e-08*X+0.5e-08</scale>
			<relative>0</relative>
		</bc>
		<bc name="PrescribedFluidVelocity1" type="prescribe" node_set="PrescribedFluidVelocity1">
			<dof>wx</dof>
			<scale lc="2">1</scale>
			<relative>0</relative>
		</bc>
	</Boundary>
	<LoadData>
		<load_controller id="1" type="loadcurve">
			<interpolate>SMOOTH</interpolate>
			<points>
				<point>0,0</point>
				<point>1,1</point>
			</points>
		</load_controller>
		<load_controller id="2" type="loadcurve">
			<interpolate>SMOOTH</interpolate>
			<points>
				<point>0,0</point>
				<point>1,1</point>
			</points>
		</load_controller>
	</LoadData>
	<Output>
		<plotfile type="febio">
			<var type="acceleration"/>
			<var type="displacement"/>
			<var type="relative volume"/>
			<var type="velocity"/>
			<var type="fluid pressure"/>
			<var type="fluid acceleration"/>
			<var type="fluid density"/>
			<var type="fluid dilatation"/>
			<var type="fluid rate of deformation"/>
			<var type="fluid stress"/>
			<var type="fluid velocity"/>
			<var type="fluid volume ratio"/>
			<var type="fluid vorticity"/>
			<var type="nodal fluid velocity"/>
			<var type="fluid flux"/>
			<var type="nodal fluid flux"/>
		</plotfile>
	</Output>
</febio_spec>
