<?xml version="1.0" encoding="ISO-8859-1"?>
<!--
 This file was created with FEBio Studio version 1.0.0 
-->

<!--
Problem Description:
	BFSI compression of a block with Holmes-Mow permeability model. Smoothly compress by 99.99% to t=1s. 
Main Features:
	BFSI
	porous solid
	non linear permeability
Secondary Features:
	Broyden
	no ref each step
	no diverge reform
	Moving boundary
Materials:
	NeoHookean
	Poroelastic
	Newtonian
	Holmes Mow Permeability
Degrees of Freedom: 1204
Results:
	Steps Completed: 111
	Equilibrium Iterations: 1060
	Right Hand Evaluations: 1609
	Siffness Reformations: 36
	Other:
		The z-permeability for element 100 at t=1 is 0.0100048
Comments:

-->
<febio_spec version="3.0">
	<Module type="fluid-FSI"/>
	<Control>
		<analysis>DYNAMIC</analysis>
		<time_steps>100</time_steps>
		<step_size>0.01</step_size>
		<solver>
			<max_refs>5</max_refs>
			<max_ups>50</max_ups>
			<diverge_reform>0</diverge_reform>
			<reform_each_time_step>0</reform_each_time_step>
			<dtol>0.001</dtol>
			<vtol>0.001</vtol>
			<ftol>0.001</ftol>
			<etol>0.01</etol>
			<rtol>0.001</rtol>
			<lstol>0.9</lstol>
			<min_residual>1e-20</min_residual>
			<max_residual>1e+20</max_residual>
			<rhoi>0</rhoi>
			<qnmethod>BROYDEN</qnmethod>
			<symmetric_stiffness>0</symmetric_stiffness>
		</solver>
		<time_stepper>
			<dtmin>0.001</dtmin>
			<dtmax>0.01</dtmax>
			<max_retries>9</max_retries>
			<opt_iter>50</opt_iter>
		</time_stepper>
	</Control>
	<Globals>
		<Constants>
			<T>0</T>
			<R>0</R>
			<Fc>0</Fc>
		</Constants>
	</Globals>
	<Material>
		<material id="1" name="Material1" type="biphasic-FSI">
			<phi0>0</phi0>
			<fluid type="fluid">
				<density>0</density>
				<k>1e+12</k>
				<viscous type="Newtonian fluid">
					<mu>0</mu>
					<kappa>0</kappa>
				</viscous>
			</fluid>
			<solid type="neo-Hookean">
				<density>0</density>
				<E>1</E>
				<v>0</v>
			</solid>
			<permeability type="perm-Holmes-Mow">
				<perm>1</perm>
				<M>0</M>
				<alpha>0.5</alpha>
			</permeability>
		</material>
	</Material>
	<Mesh>
		<Nodes name="Object01">
			<node id="1">-0.5,-0.5,0</node>
			<node id="2">-0.5,-0.5,0.0023118787</node>
			<node id="3">-0.5,-0.5,0.0046815543</node>
			<node id="4">-0.5,-0.5,0.0071104718</node>
			<node id="5">-0.5,-0.5,0.0096001122</node>
			<node id="6">-0.5,-0.5,0.012151994</node>
			<node id="7">-0.5,-0.5,0.014767672</node>
			<node id="8">-0.5,-0.5,0.017448743</node>
			<node id="9">-0.5,-0.5,0.02019684</node>
			<node id="10">-0.5,-0.5,0.02301364</node>
			<node id="11">-0.5,-0.5,0.025900859</node>
			<node id="12">-0.5,-0.5,0.028860259</node>
			<node id="13">-0.5,-0.5,0.031893644</node>
			<node id="14">-0.5,-0.5,0.035002864</node>
			<node id="15">-0.5,-0.5,0.038189814</node>
			<node id="16">-0.5,-0.5,0.041456438</node>
			<node id="17">-0.5,-0.5,0.044804728</node>
			<node id="18">-0.5,-0.5,0.048236725</node>
			<node id="19">-0.5,-0.5,0.051754522</node>
			<node id="20">-0.5,-0.5,0.055360263</node>
<!-- ... 384 like lines cut -->
		</Nodes>
		<Elements type="hex8" name="Part1">
			<elem id="1">1,203,304,102,2,204,305,103</elem>
			<elem id="2">2,204,305,103,3,205,306,104</elem>
			<elem id="3">3,205,306,104,4,206,307,105</elem>
			<elem id="4">4,206,307,105,5,207,308,106</elem>
			<elem id="5">5,207,308,106,6,208,309,107</elem>
			<elem id="6">6,208,309,107,7,209,310,108</elem>
			<elem id="7">7,209,310,108,8,210,311,109</elem>
			<elem id="8">8,210,311,109,9,211,312,110</elem>
			<elem id="9">9,211,312,110,10,212,313,111</elem>
			<elem id="10">10,212,313,111,11,213,314,112</elem>
			<elem id="11">11,213,314,112,12,214,315,113</elem>
			<elem id="12">12,214,315,113,13,215,316,114</elem>
			<elem id="13">13,215,316,114,14,216,317,115</elem>
			<elem id="14">14,216,317,115,15,217,318,116</elem>
			<elem id="15">15,217,318,116,16,218,319,117</elem>
			<elem id="16">16,218,319,117,17,219,320,118</elem>
			<elem id="17">17,219,320,118,18,220,321,119</elem>
			<elem id="18">18,220,321,119,19,221,322,120</elem>
			<elem id="19">19,221,322,120,20,222,323,121</elem>
			<elem id="20">20,222,323,121,21,223,324,122</elem>
<!-- ... 80 like lines cut -->
		</Elements>
		<NodeSet name="FixedDisplacement1">
			<n id="1"/>
			<n id="2"/>
			<n id="3"/>
			<n id="4"/>
			<n id="5"/>
			<n id="6"/>
			<n id="7"/>
			<n id="8"/>
			<n id="9"/>
			<n id="10"/>
			<n id="11"/>
			<n id="12"/>
			<n id="13"/>
			<n id="14"/>
			<n id="15"/>
			<n id="16"/>
			<n id="17"/>
			<n id="18"/>
			<n id="19"/>
			<n id="20"/>
<!-- ... 384 like lines cut -->
		</NodeSet>
		<NodeSet name="FixedDisplacement2">
			<n id="1"/>
			<n id="2"/>
			<n id="3"/>
			<n id="4"/>
			<n id="5"/>
			<n id="6"/>
			<n id="7"/>
			<n id="8"/>
			<n id="9"/>
			<n id="10"/>
			<n id="11"/>
			<n id="12"/>
			<n id="13"/>
			<n id="14"/>
			<n id="15"/>
			<n id="16"/>
			<n id="17"/>
			<n id="18"/>
			<n id="19"/>
			<n id="20"/>
<!-- ... 384 like lines cut -->
		</NodeSet>
		<NodeSet name="FixedDisplacement3">
			<n id="1"/>
			<n id="102"/>
			<n id="203"/>
			<n id="304"/>
		</NodeSet>
		<NodeSet name="FixedEffectiveFluidPressure1">
			<n id="1"/>
			<n id="102"/>
			<n id="203"/>
			<n id="304"/>
		</NodeSet>
		<NodeSet name="PrescribedDisplacement1">
			<n id="101"/>
			<n id="202"/>
			<n id="303"/>
			<n id="404"/>
		</NodeSet>
	</Mesh>
	<MeshDomains>
		<SolidDomain name="Part1" mat="Material1"/>
	</MeshDomains>
	<Boundary>
		<bc name="FixedDisplacement01" type="fix" node_set="FixedDisplacement1">
			<dofs>y</dofs>
		</bc>
		<bc name="FixedDisplacement02" type="fix" node_set="FixedDisplacement2">
			<dofs>x</dofs>
		</bc>
		<bc name="FixedDisplacement03" type="fix" node_set="FixedDisplacement3">
			<dofs>z</dofs>
		</bc>
		<bc name="FixedFluidVelocity01" type="fix" node_set="FixedDisplacement1">
			<dofs>wy</dofs>
		</bc>
		<bc name="FixedFluidVelocity02" type="fix" node_set="FixedDisplacement2">
			<dofs>wx</dofs>
		</bc>
		<bc name="FixedFluidDilatation01" type="fix" node_set="FixedEffectiveFluidPressure1">
			<dofs>ef</dofs>
		</bc>
		<bc name="PrescribedDisplacement1" type="prescribe" node_set="PrescribedDisplacement1">
			<dof>z</dof>
			<scale lc="1">-0.9999</scale>
			<relative>0</relative>
		</bc>
	</Boundary>
	<LoadData>
		<load_controller id="1" type="loadcurve">
			<interpolate>SMOOTH</interpolate>
			<points>
				<point>0,0</point>
				<point>1,1</point>
			</points>
		</load_controller>
	</LoadData>
	<Output>
		<plotfile type="febio">
			<var type="acceleration"/>
			<var type="displacement"/>
			<var type="relative volume"/>
			<var type="stress"/>
			<var type="velocity"/>
			<var type="fluid pressure"/>
			<var type="fluid flux"/>
			<var type="fluid acceleration"/>
			<var type="fluid density"/>
			<var type="fluid dilatation"/>
			<var type="fluid rate of deformation"/>
			<var type="fluid stress"/>
			<var type="fluid velocity"/>
			<var type="fluid volume ratio"/>
			<var type="fluid vorticity"/>
			<var type="nodal fluid velocity"/>
			<var type="nodal fluid flux"/>
			<var type="permeability"/>
		</plotfile>
	</Output>
</febio_spec>
