<?xml version="1.0" encoding="ISO-8859-1"?>
<!--
This file was created with FEBio Studio version 1.0.0 



BFSI one-dimensional isothermal dilatational wave propagation problem. Transient, but no viscous, friction effects, no intertia. Prescribed fluid dilatational disturbance, creating two solid disturbances. Energy conserved with rhoi=1. Multistep used to prescribe correct boundary conditions.

Similar examples seen in results of
   Shim JJ, Maas SA, Weiss JA, Ateshian GA. (2021) J Biomech Eng, In Press.
-->

<!--
Problem Description:
	BFSI one-dimensional isothermal dilatational wave propagation problem. Transient, but no viscous, friction effects, no intertia. Prescribed fluid dilatational disturbance, creating two solid disturbances. Energy conserved with rhoi=1. Multistep used to prescribe correct boundary conditions.
Main Features:
	BFSI
	non zero gen alpha
	Porous solid
Secondary Features:
	Broyden
	no ref each step
	no diverge reform
Materials:
	NeoHookean
	Poroelastic
	Newtonian
	Constant Permeability
Degrees of Freedom: 40016
Results:
	Steps Completed: 600
	Equilibrium Iterations: 1231
	Right Hand Evaluations: 1834
	Siffness Reformations: 14
	Other:
		The x-velocity for element 700 at time t=0.002 is -5.49727e-07
Comments:
	Similar examples seen in results of
       Shim JJ, Maas SA, Weiss JA, Ateshian GA. (2021) J Biomech Eng, In Press.
-->
<febio_spec version="3.0">
	<Module type="fluid-FSI"/>
	<Globals>
		<Constants>
			<T>0</T>
			<R>0</R>
			<Fc>0</Fc>
		</Constants>
	</Globals>
	<Material>
		<material id="1" name="Material1" type="biphasic-FSI">
			<phi0>0.2</phi0>
			<fluid type="fluid">
				<density>1.225</density>
				<k>101325</k>
				<viscous type="Newtonian fluid">
					<mu>0</mu>
					<kappa>0</kappa>
				</viscous>
			</fluid>
			<solid type="neo-Hookean">
				<density>1000</density>
				<E>1.6e8</E>
				<v>0</v>
			</solid>
			<permeability type="perm-const-iso">
				<perm>0</perm>
			</permeability>
		</material>
	</Material>
	<Mesh>
		<Nodes name="Object01">
			<node id="1">-0.5,-0.05,0</node>
			<node id="2">-0.5,-0.05,0.05</node>
			<node id="3">-0.5,0.05,0</node>
			<node id="4">-0.5,0.05,0.05</node>
			<node id="5">-0.4995,-0.05,0</node>
			<node id="6">-0.4995,-0.05,0.05</node>
			<node id="7">-0.4995,0.05,0</node>
			<node id="8">-0.4995,0.05,0.05</node>
			<node id="9">-0.499,-0.05,0</node>
			<node id="10">-0.499,-0.05,0.05</node>
			<node id="11">-0.499,0.05,0</node>
			<node id="12">-0.499,0.05,0.05</node>
			<node id="13">-0.4985,-0.05,0</node>
			<node id="14">-0.4985,-0.05,0.05</node>
			<node id="15">-0.4985,0.05,0</node>
			<node id="16">-0.4985,0.05,0.05</node>
			<node id="17">-0.498,-0.05,0</node>
			<node id="18">-0.498,-0.05,0.05</node>
			<node id="19">-0.498,0.05,0</node>
			<node id="20">-0.498,0.05,0.05</node>
<!-- ... 7984 like lines cut -->
		</Nodes>
		<Elements type="hex8" mat="1" name="Part1">
			<elem id="1">1,5,7,3,2,6,8,4</elem>
			<elem id="2">5,9,11,7,6,10,12,8</elem>
			<elem id="3">9,13,15,11,10,14,16,12</elem>
			<elem id="4">13,17,19,15,14,18,20,16</elem>
			<elem id="5">17,21,23,19,18,22,24,20</elem>
			<elem id="6">21,25,27,23,22,26,28,24</elem>
			<elem id="7">25,29,31,27,26,30,32,28</elem>
			<elem id="8">29,33,35,31,30,34,36,32</elem>
			<elem id="9">33,37,39,35,34,38,40,36</elem>
			<elem id="10">37,41,43,39,38,42,44,40</elem>
			<elem id="11">41,45,47,43,42,46,48,44</elem>
			<elem id="12">45,49,51,47,46,50,52,48</elem>
			<elem id="13">49,53,55,51,50,54,56,52</elem>
			<elem id="14">53,57,59,55,54,58,60,56</elem>
			<elem id="15">57,61,63,59,58,62,64,60</elem>
			<elem id="16">61,65,67,63,62,66,68,64</elem>
			<elem id="17">65,69,71,67,66,70,72,68</elem>
			<elem id="18">69,73,75,71,70,74,76,72</elem>
			<elem id="19">73,77,79,75,74,78,80,76</elem>
			<elem id="20">77,81,83,79,78,82,84,80</elem>
<!-- ... 1980 like lines cut -->
		</Elements>
		<Surface name="FixedDisplacement1">
			<quad4 id="1">3,7,5,1</quad4>
			<quad4 id="2">7,11,9,5</quad4>
			<quad4 id="3">11,15,13,9</quad4>
			<quad4 id="4">15,19,17,13</quad4>
			<quad4 id="5">19,23,21,17</quad4>
			<quad4 id="6">23,27,25,21</quad4>
			<quad4 id="7">27,31,29,25</quad4>
			<quad4 id="8">31,35,33,29</quad4>
			<quad4 id="9">35,39,37,33</quad4>
			<quad4 id="10">39,43,41,37</quad4>
			<quad4 id="11">43,47,45,41</quad4>
			<quad4 id="12">47,51,49,45</quad4>
			<quad4 id="13">51,55,53,49</quad4>
			<quad4 id="14">55,59,57,53</quad4>
			<quad4 id="15">59,63,61,57</quad4>
			<quad4 id="16">63,67,65,61</quad4>
			<quad4 id="17">67,71,69,65</quad4>
			<quad4 id="18">71,75,73,69</quad4>
			<quad4 id="19">75,79,77,73</quad4>
			<quad4 id="20">79,83,81,77</quad4>
<!-- ... 3980 like lines cut -->
		</Surface>
		<Surface name="FixedDisplacement2">
			<quad4 id="1">1,5,6,2</quad4>
			<quad4 id="2">5,9,10,6</quad4>
			<quad4 id="3">9,13,14,10</quad4>
			<quad4 id="4">13,17,18,14</quad4>
			<quad4 id="5">17,21,22,18</quad4>
			<quad4 id="6">21,25,26,22</quad4>
			<quad4 id="7">25,29,30,26</quad4>
			<quad4 id="8">29,33,34,30</quad4>
			<quad4 id="9">33,37,38,34</quad4>
			<quad4 id="10">37,41,42,38</quad4>
			<quad4 id="11">41,45,46,42</quad4>
			<quad4 id="12">45,49,50,46</quad4>
			<quad4 id="13">49,53,54,50</quad4>
			<quad4 id="14">53,57,58,54</quad4>
			<quad4 id="15">57,61,62,58</quad4>
			<quad4 id="16">61,65,66,62</quad4>
			<quad4 id="17">65,69,70,66</quad4>
			<quad4 id="18">69,73,74,70</quad4>
			<quad4 id="19">73,77,78,74</quad4>
			<quad4 id="20">77,81,82,78</quad4>
<!-- ... 3980 like lines cut -->
		</Surface>
		<Surface name="FixedDisplacement3">
			<quad4 id="1">8001,8003,8004,8002</quad4>
		</Surface>
		<Surface name="FixedDisplacement4">
			<quad4 id="1">3,1,2,4</quad4>
		</Surface>
		<Surface name="FluidNormalVelocity01">
			<quad4 id="1">3,1,2,4</quad4>
		</Surface>
	</Mesh>
	<MeshDomains>
		<SolidDomain name="Part1" mat="Material1"/>
	</MeshDomains>
	<Boundary>
		<bc name="FixedDisplacement1" type="fix" node_set="@surface:FixedDisplacement1">
			<dofs>z</dofs>
		</bc>
		<bc name="FixedDisplacement2" type="fix" node_set="@surface:FixedDisplacement2">
			<dofs>y</dofs>
		</bc>
		<bc name="FixedDisplacement3" type="fix" node_set="@surface:FixedDisplacement3">
			<dofs>x</dofs>
		</bc>
	</Boundary>
	<Loads>
		<surface_load name="FluidNormalVelocity01" type="fluid normal velocity" surface="FluidNormalVelocity01">
			<velocity lc="1">-0.001</velocity>
			<prescribe_nodal_velocities>1</prescribe_nodal_velocities>
			<parabolic>0</parabolic>
			<prescribe_rim_pressure>0</prescribe_rim_pressure>
		</surface_load>
	</Loads>
	<Step>
		<step id="1" name="Step1">
			<Control>
				<analysis>DYNAMIC</analysis>
				<time_steps>200</time_steps>
				<step_size>5e-06</step_size>
				<solver>
					<max_refs>2</max_refs>
					<max_ups>50</max_ups>
					<diverge_reform>0</diverge_reform>
					<reform_each_time_step>0</reform_each_time_step>
					<dtol>0</dtol>
					<vtol>1e-03</vtol>
					<ftol>1e-03</ftol>
					<etol>0</etol>
					<rtol>0</rtol>
					<lstol>0.9</lstol>
					<min_residual>1e-20</min_residual>
					<max_residual>1e+20</max_residual>
					<rhoi>1</rhoi>
					<qnmethod>BROYDEN</qnmethod>
					<symmetric_stiffness>0</symmetric_stiffness>
				</solver>
			</Control>
		</step>
		<step id="2" name="Step2">
			<Control>
				<analysis>DYNAMIC</analysis>
				<time_steps>400</time_steps>
				<step_size>5e-06</step_size>
				<solver>
					<max_refs>2</max_refs>
					<max_ups>50</max_ups>
					<diverge_reform>0</diverge_reform>
					<reform_each_time_step>0</reform_each_time_step>
					<dtol>0</dtol>
					<vtol>1e-03</vtol>
					<ftol>1e-03</ftol>
					<etol>0</etol>
					<rtol>0</rtol>
					<lstol>0.9</lstol>
					<min_residual>1e-20</min_residual>
					<max_residual>1e+20</max_residual>
					<rhoi>1</rhoi>
					<qnmethod>BROYDEN</qnmethod>
					<symmetric_stiffness>0</symmetric_stiffness>
				</solver>
			</Control>
			<Boundary>
				<bc name="FixedDisplacement4" type="prescribe" node_set="@surface:FixedDisplacement4">
					<dof>x</dof>
					<scale lc="2">0</scale>
					<relative>1</relative>
				</bc>
			</Boundary>
		</step>
	</Step>
	<LoadData>
		<load_controller id="1" type="loadcurve">
			<interpolate>SMOOTH</interpolate>
			<points>
				<point>0,0</point>
				<point>1e-05,0.0109261812427</point>
				<point>2e-05,0.0432271992246</point>
				<point>3e-05,0.0954913468385</point>
				<point>4e-05,0.165434433887</point>
				<point>5e-05,0.249999616987</point>
				<point>6e-05,0.34549099807</point>
				<point>7e-05,0.447735152587</point>
				<point>8e-05,0.552263527886</point>
				<point>9e-05,0.654507740073</point>
				<point>0.0001,0.749999233974</point>
				<point>0.00011,0.834564580112</point>
				<point>0.00012,0.90450787329</point>
				<point>0.00013,0.956772261118</point>
				<point>0.00014,0.9890735429</point>
				<point>0.00015,0.999999999998</point>
				<point>0.00016,0.989074094612</point>
				<point>0.00017,0.956773340429</point>
				<point>0.00018,0.90450943303</point>
				<point>0.00019,0.834566552112</point>
<!-- ... 11 like lines cut -->
			</points>
		</load_controller>
		<load_controller id="2" type="loadcurve">
			<interpolate>STEP</interpolate>
			<points>
				<point>0,0</point>
				<point>1,1</point>
			</points>
		</load_controller>
	</LoadData>
	<Output>
		<plotfile type="febio">
			<var type="acceleration"/>
			<var type="displacement"/>
			<var type="velocity"/>
			<var type="fluid pressure"/>
			<var type="fluid acceleration"/>
			<var type="fluid dilatation"/>
			<var type="fluid pressure"/>
			<var type="fluid rate of deformation"/>
			<var type="fluid stress"/>
			<var type="fluid velocity"/>
			<var type="fluid volume ratio"/>
			<var type="fluid vorticity"/>
			<var type="nodal fluid velocity"/>
			<var type="nodal fluid flux"/>
			<var type="fluid flux"/>
		</plotfile>
	</Output>
</febio_spec>
