<?xml version="1.0" encoding="ISO-8859-1"?>
<!--
Biphasic unconfined compression of a circular disk.  The disk is modeled using
a wedge with 30 elements along the radial direction. It has a radius of 3 mm
and a thickness of 1 mm. It is compressed in the zdirection by 0.2 mm using 
a step function, then allowed to relax to time t=1e4 s.
-->
<febio_spec version="3.0">
	<Module type="biphasic"/>
	<Control>
		<analysis>TRANSIENT</analysis>
		<time_steps>100000</time_steps>
		<step_size>0.1</step_size>
		<solver>
			<max_refs>15</max_refs>
			<max_ups>0</max_ups>
			<diverge_reform>1</diverge_reform>
			<reform_each_time_step>1</reform_each_time_step>
			<dtol>0.001</dtol>
			<etol>0.01</etol>
			<rtol>0</rtol>
			<ptol>0.01</ptol>
			<lstol>0.9</lstol>
			<min_residual>1e-20</min_residual>
			<qnmethod>BROYDEN</qnmethod>
			<mixed_formulation>default</mixed_formulation>
			<symmetric_stiffness>0</symmetric_stiffness>
		</solver>
		<time_stepper>
			<dtmin>0.01</dtmin>
			<dtmax lc="1"></dtmax>
			<max_retries>5</max_retries>
			<opt_iter>10</opt_iter>
		</time_stepper>
	</Control>
	<Globals>
		<Constants>
			<T>0</T>
			<R>0</R>
			<Fc>0</Fc>
		</Constants>
	</Globals>
	<Material>
		<material id="1" name="Biphasic Material" type="biphasic">
			<phi0>0.2</phi0>
			<fluid_density>1</fluid_density>
			<solid type="neo-Hookean">
				<density>1</density>
				<E>1</E>
				<v>0.1</v>
			</solid>
			<permeability type="perm-const-iso">
				<perm>0.001</perm>
			</permeability>
		</material>
		<material id="2" name="Symmetry Plane" type="rigid body">
			<density>1</density>
			<center_of_mass>0,0,0</center_of_mass>
		</material>
	</Material>
	<Mesh>
		<Nodes name="Object01">
			<node id="1">0,0,0</node>
			<node id="2">0.39607228,0,0</node>
			<node id="3">0.39552948,0.020728821,0</node>
			<node id="4">0.74065517,0,0</node>
			<node id="5">0.73964013,0.038762896,0</node>
			<node id="6">1.0404423,0,0</node>
			<node id="7">1.0390164,0.054452541,0</node>
			<node id="8">1.3012571,0,0</node>
			<node id="9">1.2994737,0.068102532,0</node>
			<node id="10">1.5281659,0,0</node>
			<node id="11">1.5260716,0.079978024,0</node>
			<node id="12">1.7255766,0,0</node>
			<node id="13">1.7232118,0.090309702,0</node>
			<node id="14">1.897324,0,0</node>
			<node id="15">1.8947237,0.099298262,0</node>
			<node id="16">2.0467441,0,0</node>
			<node id="17">2.0439391,0.10711831,0</node>
			<node id="18">2.1767397,0,0</node>
			<node id="19">2.1737565,0.11392175,0</node>
			<node id="20">2.2898358,0,0</node>
<!-- ... 106 like lines cut -->
		</Nodes>
		<Elements type="penta6" name="Part1">
			<elem id="1">1,2,3,62,63,64</elem>
		</Elements>
		<Elements type="hex8" name="Part1(2)">
			<elem id="2">2,4,5,3,63,65,66,64</elem>
			<elem id="3">4,6,7,5,65,67,68,66</elem>
			<elem id="4">6,8,9,7,67,69,70,68</elem>
			<elem id="5">8,10,11,9,69,71,72,70</elem>
			<elem id="6">10,12,13,11,71,73,74,72</elem>
			<elem id="7">12,14,15,13,73,75,76,74</elem>
			<elem id="8">14,16,17,15,75,77,78,76</elem>
			<elem id="9">16,18,19,17,77,79,80,78</elem>
			<elem id="10">18,20,21,19,79,81,82,80</elem>
			<elem id="11">20,22,23,21,81,83,84,82</elem>
			<elem id="12">22,24,25,23,83,85,86,84</elem>
			<elem id="13">24,26,27,25,85,87,88,86</elem>
			<elem id="14">26,28,29,27,87,89,90,88</elem>
			<elem id="15">28,30,31,29,89,91,92,90</elem>
			<elem id="16">30,32,33,31,91,93,94,92</elem>
			<elem id="17">32,34,35,33,93,95,96,94</elem>
			<elem id="18">34,36,37,35,95,97,98,96</elem>
			<elem id="19">36,38,39,37,97,99,100,98</elem>
			<elem id="20">38,40,41,39,99,101,102,100</elem>
			<elem id="21">40,42,43,41,101,103,104,102</elem>
<!-- ... 9 like lines cut -->
		</Elements>
		<Elements type="quad4" name="Part2">
			<elem id="31">123,125,126,124</elem>
		</Elements>
		<NodeSet name="FixedDisplacement01">
			<n id="1"/>
			<n id="62"/>
		</NodeSet>
		<NodeSet name="FixedDisplacement02">
			<n id="1"/>
			<n id="62"/>
		</NodeSet>
		<NodeSet name="FixedDisplacement03">
			<n id="1"/>
			<n id="2"/>
			<n id="4"/>
			<n id="6"/>
			<n id="8"/>
			<n id="10"/>
			<n id="12"/>
			<n id="14"/>
			<n id="16"/>
			<n id="18"/>
			<n id="20"/>
			<n id="22"/>
			<n id="24"/>
			<n id="26"/>
			<n id="28"/>
			<n id="30"/>
			<n id="32"/>
			<n id="34"/>
			<n id="36"/>
			<n id="38"/>
<!-- ... 42 like lines cut -->
		</NodeSet>
		<NodeSet name="FixedDisplacement04">
			<n id="1"/>
			<n id="2"/>
			<n id="3"/>
			<n id="4"/>
			<n id="5"/>
			<n id="6"/>
			<n id="7"/>
			<n id="8"/>
			<n id="9"/>
			<n id="10"/>
			<n id="11"/>
			<n id="12"/>
			<n id="13"/>
			<n id="14"/>
			<n id="15"/>
			<n id="16"/>
			<n id="17"/>
			<n id="18"/>
			<n id="19"/>
			<n id="20"/>
<!-- ... 41 like lines cut -->
		</NodeSet>
		<NodeSet name="FixedFluidPressure01">
			<n id="60"/>
			<n id="61"/>
			<n id="121"/>
			<n id="122"/>
		</NodeSet>
		<NodeSet name="PrescribedBC02">
			<n id="62"/>
			<n id="63"/>
			<n id="64"/>
			<n id="65"/>
			<n id="66"/>
			<n id="67"/>
			<n id="68"/>
			<n id="69"/>
			<n id="70"/>
			<n id="71"/>
			<n id="72"/>
			<n id="73"/>
			<n id="74"/>
			<n id="75"/>
			<n id="76"/>
			<n id="77"/>
			<n id="78"/>
			<n id="79"/>
			<n id="80"/>
			<n id="81"/>
<!-- ... 41 like lines cut -->
		</NodeSet>
		<Surface name="PrimarySurface01">
			<quad4 id="1">1,62,64,3</quad4>
			<quad4 id="2">5,3,64,66</quad4>
			<quad4 id="3">7,5,66,68</quad4>
			<quad4 id="4">9,7,68,70</quad4>
			<quad4 id="5">11,9,70,72</quad4>
			<quad4 id="6">13,11,72,74</quad4>
			<quad4 id="7">15,13,74,76</quad4>
			<quad4 id="8">17,15,76,78</quad4>
			<quad4 id="9">19,17,78,80</quad4>
			<quad4 id="10">21,19,80,82</quad4>
			<quad4 id="11">23,21,82,84</quad4>
			<quad4 id="12">25,23,84,86</quad4>
			<quad4 id="13">27,25,86,88</quad4>
			<quad4 id="14">29,27,88,90</quad4>
			<quad4 id="15">31,29,90,92</quad4>
			<quad4 id="16">33,31,92,94</quad4>
			<quad4 id="17">35,33,94,96</quad4>
			<quad4 id="18">37,35,96,98</quad4>
			<quad4 id="19">39,37,98,100</quad4>
			<quad4 id="20">41,39,100,102</quad4>
<!-- ... 10 like lines cut -->
		</Surface>
		<Surface name="SecondarySurface01">
			<quad4 id="1">123,125,126,124</quad4>
		</Surface>
		<ElementSet name="unnamed_set01">
			<e id="30"/>
		</ElementSet>
		<SurfacePair name="TCInterface01">
			<primary>PrimarySurface01</primary>
			<secondary>SecondarySurface01</secondary>
		</SurfacePair>
	</Mesh>
	<MeshDomains>
		<SolidDomain name="Part1" mat="Biphasic Material"/>
		<SolidDomain name="Part1(2)" mat="Biphasic Material"/>
		<ShellDomain name="Part2" mat="Symmetry Plane"/>
	</MeshDomains>
	<MeshData>
		<ElementData var="shell thickness" elem_set="Part2">
			<e lid="1">0.01,0.01,0.01,0.01</e>
		</ElementData>
	</MeshData>
	<Boundary>
		<bc name="FixedDisplacement01" type="fix" node_set="FixedDisplacement01">
			<dofs>y</dofs>
		</bc>
		<bc name="FixedDisplacement02" type="fix" node_set="FixedDisplacement02">
			<dofs>x</dofs>
		</bc>
		<bc name="FixedDisplacement03" type="fix" node_set="FixedDisplacement03">
			<dofs>y</dofs>
		</bc>
		<bc name="FixedDisplacement04" type="fix" node_set="FixedDisplacement04">
			<dofs>z</dofs>
		</bc>
		<bc name="FixedFluidPressure01" type="fix" node_set="FixedFluidPressure01">
			<dofs>p</dofs>
		</bc>
		<bc name="PrescribedBC02" type="prescribe" node_set="PrescribedBC02">
			<dof>z</dof>
			<scale lc="2">1</scale>
			<relative>0</relative>
		</bc>
	</Boundary>
	<Rigid>
		<rigid_constraint name="RigidFixed01" type="fix">
			<rb>2</rb>
			<dofs>Rx,Ry,Rz,Ru,Rv,Rw</dofs>
		</rigid_constraint>
	</Rigid>
	<Contact>
		<contact type="sliding-elastic" name="TCInterface01" surface_pair="TCInterface01">
			<laugon>0</laugon>
			<tolerance>0.2</tolerance>
			<gaptol>0</gaptol>
			<penalty>10000</penalty>
			<auto_penalty>1</auto_penalty>
			<two_pass>0</two_pass>
			<search_tol>0.01</search_tol>
			<symmetric_stiffness>0</symmetric_stiffness>
			<search_radius>1</search_radius>
			<seg_up>0</seg_up>
			<tension>1</tension>
			<minaug>0</minaug>
			<maxaug>10</maxaug>
			<fric_coeff>0</fric_coeff>
			<smooth_aug>0</smooth_aug>
			<node_reloc>0</node_reloc>
			<flip_primary>0</flip_primary>
			<flip_secondary>0</flip_secondary>
			<knmult>0</knmult>
			<update_penalty>0</update_penalty>
		</contact>
	</Contact>
	<LoadData>
		<load_controller id="1" type="loadcurve">
			<interpolate>STEP</interpolate>
			<points>
				<point>0,0</point>
				<point>1,0.1</point>
				<point>10,1</point>
				<point>100,10</point>
				<point>1000,100</point>
				<point>10000,1000</point>
			</points>
		</load_controller>
		<load_controller id="2" type="loadcurve">
			<interpolate>STEP</interpolate>
			<points>
				<point>0,0</point>
				<point>1,-0.2</point>
			</points>
		</load_controller>
	</LoadData>
	<Output>
		<plotfile type="febio">
			<var type="contact gap"/>
			<var type="contact pressure"/>
			<var type="displacement"/>
			<var type="relative volume"/>
			<var type="stress"/>
			<var type="effective fluid pressure"/>
			<var type="fluid flux"/>
		</plotfile>
		<logfile>
			<element_data data="wx" elem_set="unnamed_set01"/>
		</logfile>
	</Output>
</febio_spec>
