<?xml version="1.0" encoding="ISO-8859-1"?>
<!--
Problem Description:
	Osmotic loading of spherical gel, using externally prescribed solute concentration.
	Units: length = mm, force = N, time = s, mole = nanomol; stress = MPa, concentration = mM.
Main Features:
	Biphasic with Solute
Secondary Features:
	
Materials:
	biphasicsolute
Degrees of Freedom: 6116
Results:
	Steps Completed: 86
	Equilibrium Iterations: 295
	Right Hand Evaluations: 387
	Siffness Reformations: 295
	Other:
		The weighted average of the relative volume has a minimum value of 0.715 at t=117.8s
Comments:
	
-->
<febio_spec version="3.0">
	<Module type="solute"/>
	<Control>
		<analysis>TRANSIENT</analysis>
		<time_steps>36000</time_steps>
		<step_size>0.1</step_size>
		<solver>
			<max_refs>25</max_refs>
			<max_ups>0</max_ups>
			<diverge_reform>1</diverge_reform>
			<reform_each_time_step>1</reform_each_time_step>
			<dtol>0.001</dtol>
			<etol>0.01</etol>
			<rtol>0</rtol>
			<ptol>0.01</ptol>
			<ctol>0.01</ctol>
			<lstol>0.9</lstol>
			<min_residual>1e-20</min_residual>
			<qnmethod>BROYDEN</qnmethod>
			<symmetric_stiffness>0</symmetric_stiffness>
		</solver>
		<time_stepper>
			<dtmin>0.01</dtmin>
			<dtmax lc="1"></dtmax>
			<max_retries>5</max_retries>
			<opt_iter>20</opt_iter>
		</time_stepper>
	</Control>
	<Globals>
		<Constants>
			<T>298</T>
			<R>8.314e-06</R>
			<Fc>0</Fc>
		</Constants>
		<Solutes>
			<solute id="1" name="solute">
				<charge_number>0</charge_number>
				<molar_mass>1</molar_mass>
				<density>1</density>
			</solute>
		</Solutes>
	</Globals>
	<Material>
		<material id="1" name="Biphasic with solute" type="biphasic-solute">
			<phi0>0.04</phi0>
			<solid type="neo-Hookean">
				<density>1</density>
				<E>0.006</E>
				<v>0</v>
			</solid>
			<permeability type="perm-Holmes-Mow">
				<perm>0.08</perm>
				<M>0</M>
				<alpha>0</alpha>
			</permeability>
			<osmotic_coefficient type="osm-coef-const">
				<osmcoef>1</osmcoef>
			</osmotic_coefficient>
			<solute sol="1">
				<diffusivity name="Diffusivity" type="diff-const-iso">
					<free_diff>0.00039</free_diff>
					<diff>0.000275</diff>
				</diffusivity>
				<solubility name="Solubility" type="solub-const">
					<solub>1</solub>
				</solubility>
			</solute>
		</material>
	</Material>
	<Mesh>
		<Nodes name="Object01">
			<node id="1">0.0006,0,0</node>
			<node id="2">0,0.0006,0</node>
			<node id="3">0.00042426407,0.00042426407,0</node>
			<node id="4">0,0,0.0006</node>
			<node id="5">0.00042426407,0,0.00042426407</node>
			<node id="6">0,0.00042426407,0.00042426407</node>
			<node id="7">0.00034641016,0.00034641016,0.00034641016</node>
			<node id="8">0.6,0,0</node>
			<node id="9">0,0.6,0</node>
			<node id="10">0.42426407,0.42426407,0</node>
			<node id="11">0,0,0.6</node>
			<node id="12">0.42426407,0,0.42426407</node>
			<node id="13">0,0.42426407,0.42426407</node>
			<node id="14">0.34641016,0.34641016,0.34641016</node>
			<node id="15">0.10457565,0,0</node>
			<node id="16">0.19087543,0,0</node>
			<node id="17">0.26250425,0,0</node>
			<node id="18">0.32195618,0,0</node>
			<node id="19">0.37130127,0,0</node>
			<node id="20">0.4122577,0,0</node>
<!-- ... 1322 like lines cut -->
		</Nodes>
		<Elements type="hex8" name="Part1">
			<elem id="1">1,15,209,58,64,288,803,400</elem>
			<elem id="2">15,16,210,209,288,287,804,803</elem>
			<elem id="3">16,17,211,210,287,286,805,804</elem>
			<elem id="4">17,18,212,211,286,285,806,805</elem>
			<elem id="5">18,19,213,212,285,284,807,806</elem>
			<elem id="6">19,20,214,213,284,283,808,807</elem>
			<elem id="7">20,21,215,214,283,282,809,808</elem>
			<elem id="8">21,22,216,215,282,281,810,809</elem>
			<elem id="9">22,23,217,216,281,280,811,810</elem>
			<elem id="10">23,24,218,217,280,279,812,811</elem>
			<elem id="11">24,25,219,218,279,278,813,812</elem>
			<elem id="12">25,26,220,219,278,277,814,813</elem>
			<elem id="13">26,27,221,220,277,276,815,814</elem>
			<elem id="14">27,28,222,221,276,275,816,815</elem>
			<elem id="15">28,29,223,222,275,274,817,816</elem>
			<elem id="16">29,30,224,223,274,273,818,817</elem>
			<elem id="17">30,31,225,224,273,272,819,818</elem>
			<elem id="18">31,32,226,225,272,271,820,819</elem>
			<elem id="19">32,33,227,226,271,270,821,820</elem>
			<elem id="20">33,34,228,227,270,269,822,821</elem>
<!-- ... 988 like lines cut -->
		</Elements>
		<NodeSet name="FixedNodeset01">
			<n id="2"/>
			<n id="4"/>
			<n id="6"/>
			<n id="9"/>
			<n id="11"/>
			<n id="13"/>
			<n id="122"/>
			<n id="123"/>
			<n id="124"/>
			<n id="125"/>
			<n id="126"/>
			<n id="127"/>
			<n id="128"/>
			<n id="129"/>
			<n id="130"/>
			<n id="131"/>
			<n id="132"/>
			<n id="133"/>
			<n id="134"/>
			<n id="135"/>
<!-- ... 178 like lines cut -->
		</NodeSet>
		<NodeSet name="FixedNodeset02">
			<n id="1"/>
			<n id="4"/>
			<n id="5"/>
			<n id="8"/>
			<n id="11"/>
			<n id="12"/>
			<n id="15"/>
			<n id="16"/>
			<n id="17"/>
			<n id="18"/>
			<n id="19"/>
			<n id="20"/>
			<n id="21"/>
			<n id="22"/>
			<n id="23"/>
			<n id="24"/>
			<n id="25"/>
			<n id="26"/>
			<n id="27"/>
			<n id="28"/>
<!-- ... 178 like lines cut -->
		</NodeSet>
		<NodeSet name="FixedNodeset03">
			<n id="1"/>
			<n id="2"/>
			<n id="3"/>
			<n id="8"/>
			<n id="9"/>
			<n id="10"/>
			<n id="15"/>
			<n id="16"/>
			<n id="17"/>
			<n id="18"/>
			<n id="19"/>
			<n id="20"/>
			<n id="21"/>
			<n id="22"/>
			<n id="23"/>
			<n id="24"/>
			<n id="25"/>
			<n id="26"/>
			<n id="27"/>
			<n id="28"/>
<!-- ... 178 like lines cut -->
		</NodeSet>
		<NodeSet name="PrescribedBC01">
			<n id="8"/>
			<n id="9"/>
			<n id="10"/>
			<n id="11"/>
			<n id="12"/>
			<n id="13"/>
			<n id="14"/>
			<n id="35"/>
			<n id="36"/>
			<n id="37"/>
			<n id="61"/>
			<n id="62"/>
			<n id="63"/>
			<n id="87"/>
			<n id="88"/>
			<n id="89"/>
			<n id="90"/>
			<n id="91"/>
			<n id="92"/>
			<n id="119"/>
<!-- ... 41 like lines cut -->
		</NodeSet>
		<NodeSet name="PrescribedBC02">
			<n id="8"/>
			<n id="9"/>
			<n id="10"/>
			<n id="11"/>
			<n id="12"/>
			<n id="13"/>
			<n id="14"/>
			<n id="35"/>
			<n id="36"/>
			<n id="37"/>
			<n id="61"/>
			<n id="62"/>
			<n id="63"/>
			<n id="87"/>
			<n id="88"/>
			<n id="89"/>
			<n id="90"/>
			<n id="91"/>
			<n id="92"/>
			<n id="119"/>
<!-- ... 41 like lines cut -->
		</NodeSet>
		<ElementSet name="unnamed_set01">
			<e id="693"/>
		</ElementSet>
	</Mesh>
	<MeshDomains>
		<SolidDomain name="Part1" mat="Biphasic with solute"/>
	</MeshDomains>
	<Boundary>
		<bc name="FixedDisplacement01" type="fix" node_set="FixedNodeset01">
			<dofs>x</dofs>
		</bc>
		<bc name="FixedDisplacement02" type="fix" node_set="FixedNodeset02">
			<dofs>y</dofs>
		</bc>
		<bc name="FixedDisplacement03" type="fix" node_set="FixedNodeset03">
			<dofs>z</dofs>
		</bc>
		<bc name="PrescribedBC01" type="prescribe" node_set="PrescribedBC01">
			<dof>p</dof>
			<scale lc="2">-0.00247757</scale>
			<relative>0</relative>
		</bc>
		<bc name="PrescribedBC02" type="prescribe" node_set="PrescribedBC02">
			<dof>c1</dof>
			<scale lc="3">1</scale>
			<relative>0</relative>
		</bc>
	</Boundary>
	<LoadData>
		<load_controller id="1" type="loadcurve">
			<interpolate>LINEAR</interpolate>
			<extend>EXTRAPOLATE</extend>
			<points>
				<point>0,0</point>
				<point>1,0.2</point>
			</points>
		</load_controller>
		<load_controller id="2" type="loadcurve">
			<interpolate>LINEAR</interpolate>
			<points>
				<point>0,0</point>
				<point>1,6</point>
			</points>
		</load_controller>
		<load_controller id="3" type="loadcurve">
			<interpolate>LINEAR</interpolate>
			<points>
				<point>0,0</point>
				<point>1,6</point>
			</points>
		</load_controller>
	</LoadData>
	<Output>
		<plotfile type="febio">
			<var type="displacement"/>
			<var type="relative volume"/>
			<var type="stress"/>
			<var type="effective fluid pressure"/>
			<var type="fluid pressure"/>
			<var type="fluid flux"/>
			<var type="solute concentration"/>
		</plotfile>
		<logfile>
			<element_data data="c1" elem_set="unnamed_set01"/>
		</logfile>
	</Output>
</febio_spec>
