<?xml version="1.0" encoding="ISO-8859-1"?>
<!--
Step loading of cylindrical disk in unconfined compression.
The solute concentration is initially uniform in the disk and equal to the prescribed bath concentration.
A step compressive strain cause solute concentration to increase in the disk, before desorbing back down.
Units: length = mm, force = N, time = s, mole = nanomol; stress = MPa, concentration = mM.
-->
<febio_spec version="3.0">
	<Module type="solute"/>
	<Control>
		<analysis>TRANSIENT</analysis>
		<time_steps>720000</time_steps>
		<step_size>0.01</step_size>
		<solver>
			<max_refs>25</max_refs>
			<max_ups>0</max_ups>
			<diverge_reform>1</diverge_reform>
			<reform_each_time_step>1</reform_each_time_step>
			<dtol>0.001</dtol>
			<etol>0.01</etol>
			<rtol>0</rtol>
			<ptol>0.01</ptol>
			<ctol>0.001</ctol>
			<lstol>0.9</lstol>
			<min_residual>1e-20</min_residual>
			<qnmethod>BROYDEN</qnmethod>
			<symmetric_stiffness>0</symmetric_stiffness>
		</solver>
		<time_stepper>
			<dtmin>0.01</dtmin>
			<dtmax lc="1"></dtmax>
			<max_retries>5</max_retries>
			<opt_iter>100</opt_iter>
		</time_stepper>
	</Control>
	<Globals>
		<Constants>
			<T>298</T>
			<R>8.314e-06</R>
			<Fc>0</Fc>
		</Constants>
		<Solutes>
			<solute id="1" name="neutral">
				<charge_number>0</charge_number>
				<molar_mass>1</molar_mass>
				<density>1</density>
			</solute>
		</Solutes>
	</Globals>
	<Material>
		<material id="1" name="Biphasic with solute" type="biphasic-solute">
			<phi0>0.04</phi0>
			<solid type="neo-Hookean">
				<density>1</density>
				<E>0.006</E>
				<v>0</v>
			</solid>
			<permeability type="perm-Holmes-Mow">
				<perm>0.08</perm>
				<M>0</M>
				<alpha>0</alpha>
			</permeability>
			<osmotic_coefficient type="osm-coef-const">
				<osmcoef>1</osmcoef>
			</osmotic_coefficient>
			<solute sol="1">
				<diffusivity name="Diffusivity" type="diff-const-iso">
					<free_diff>0.00039</free_diff>
					<diff>0.000275</diff>
				</diffusivity>
				<solubility name="Solubility" type="solub-const">
					<solub>1</solub>
				</solubility>
			</solute>
		</material>
	</Material>
	<Mesh>
		<Nodes name="Object01">
			<node id="1">0,0,0</node>
			<node id="2">0.052414736,0,0</node>
			<node id="3">0.048424902,0.020058251,0</node>
			<node id="4">0.037062816,0.037062815,0</node>
			<node id="5">0.020058252,0.048424902,0</node>
			<node id="6">1.4044474e-09,0.052414736,0</node>
			<node id="7">0.10220874,0,0</node>
			<node id="8">0.094428559,0.039113589,0</node>
			<node id="9">0.072272491,0.072272489,0</node>
			<node id="10">0.039113592,0.094428558,0</node>
			<node id="11">2.7386725e-09,0.10220874,0</node>
			<node id="12">0.14951304,0,0</node>
			<node id="13">0.13813203,0.057216161,0</node>
			<node id="14">0.10572168,0.10572168,0</node>
			<node id="15">0.057216164,0.13813203,0</node>
			<node id="16">4.0061863e-09,0.14951304,0</node>
			<node id="17">0.19445212,0,0</node>
			<node id="18">0.17965033,0.074413604,0</node>
			<node id="19">0.13749841,0.13749841,0</node>
			<node id="20">0.074413608,0.17965033,0</node>
<!-- ... 582 like lines cut -->
		</Nodes>
		<Elements type="penta6" name="Part2">
			<elem id="1">1,2,3,302,303,304</elem>
			<elem id="2">1,3,4,302,304,305</elem>
			<elem id="3">1,4,5,302,305,306</elem>
			<elem id="4">1,5,6,302,306,307</elem>
		</Elements>
		<Elements type="hex8" name="Part2(2)">
			<elem id="5">2,7,8,3,303,308,309,304</elem>
			<elem id="6">3,8,9,4,304,309,310,305</elem>
			<elem id="7">4,9,10,5,305,310,311,306</elem>
			<elem id="8">5,10,11,6,306,311,312,307</elem>
			<elem id="9">7,12,13,8,308,313,314,309</elem>
			<elem id="10">8,13,14,9,309,314,315,310</elem>
			<elem id="11">9,14,15,10,310,315,316,311</elem>
			<elem id="12">10,15,16,11,311,316,317,312</elem>
			<elem id="13">12,17,18,13,313,318,319,314</elem>
			<elem id="14">13,18,19,14,314,319,320,315</elem>
			<elem id="15">14,19,20,15,315,320,321,316</elem>
			<elem id="16">15,20,21,16,316,321,322,317</elem>
			<elem id="17">17,22,23,18,318,323,324,319</elem>
			<elem id="18">18,23,24,19,319,324,325,320</elem>
			<elem id="19">19,24,25,20,320,325,326,321</elem>
			<elem id="20">20,25,26,21,321,326,327,322</elem>
			<elem id="21">22,27,28,23,323,328,329,324</elem>
			<elem id="22">23,28,29,24,324,329,330,325</elem>
			<elem id="23">24,29,30,25,325,330,331,326</elem>
			<elem id="24">25,30,31,26,326,331,332,327</elem>
<!-- ... 216 like lines cut -->
		</Elements>
		<NodeSet name="FixedDisplacement01">
			<n id="1"/>
			<n id="6"/>
			<n id="11"/>
			<n id="16"/>
			<n id="21"/>
			<n id="26"/>
			<n id="31"/>
			<n id="36"/>
			<n id="41"/>
			<n id="46"/>
			<n id="51"/>
			<n id="56"/>
			<n id="61"/>
			<n id="66"/>
			<n id="71"/>
			<n id="76"/>
			<n id="81"/>
			<n id="86"/>
			<n id="91"/>
			<n id="96"/>
<!-- ... 102 like lines cut -->
		</NodeSet>
		<NodeSet name="FixedDisplacement02">
			<n id="1"/>
			<n id="2"/>
			<n id="7"/>
			<n id="12"/>
			<n id="17"/>
			<n id="22"/>
			<n id="27"/>
			<n id="32"/>
			<n id="37"/>
			<n id="42"/>
			<n id="47"/>
			<n id="52"/>
			<n id="57"/>
			<n id="62"/>
			<n id="67"/>
			<n id="72"/>
			<n id="77"/>
			<n id="82"/>
			<n id="87"/>
			<n id="92"/>
<!-- ... 102 like lines cut -->
		</NodeSet>
		<NodeSet name="FixedDisplacement03">
			<n id="1"/>
			<n id="2"/>
			<n id="3"/>
			<n id="4"/>
			<n id="5"/>
			<n id="6"/>
			<n id="7"/>
			<n id="8"/>
			<n id="9"/>
			<n id="10"/>
			<n id="11"/>
			<n id="12"/>
			<n id="13"/>
			<n id="14"/>
			<n id="15"/>
			<n id="16"/>
			<n id="17"/>
			<n id="18"/>
			<n id="19"/>
			<n id="20"/>
<!-- ... 281 like lines cut -->
		</NodeSet>
		<NodeSet name="PrescribedBC19">
			<n id="302"/>
			<n id="303"/>
			<n id="304"/>
			<n id="305"/>
			<n id="306"/>
			<n id="307"/>
			<n id="308"/>
			<n id="309"/>
			<n id="310"/>
			<n id="311"/>
			<n id="312"/>
			<n id="313"/>
			<n id="314"/>
			<n id="315"/>
			<n id="316"/>
			<n id="317"/>
			<n id="318"/>
			<n id="319"/>
			<n id="320"/>
			<n id="321"/>
<!-- ... 281 like lines cut -->
		</NodeSet>
		<NodeSet name="PrescribedBC20">
			<n id="297"/>
			<n id="298"/>
			<n id="299"/>
			<n id="300"/>
			<n id="301"/>
			<n id="598"/>
			<n id="599"/>
			<n id="600"/>
			<n id="601"/>
			<n id="602"/>
		</NodeSet>
		<NodeSet name="PrescribedBC21">
			<n id="297"/>
			<n id="298"/>
			<n id="299"/>
			<n id="300"/>
			<n id="301"/>
			<n id="598"/>
			<n id="599"/>
			<n id="600"/>
			<n id="601"/>
			<n id="602"/>
		</NodeSet>
		<NodeSet name="InitialConcentration01">
			<n id="1"/>
			<n id="2"/>
			<n id="3"/>
			<n id="4"/>
			<n id="5"/>
			<n id="6"/>
			<n id="7"/>
			<n id="8"/>
			<n id="9"/>
			<n id="10"/>
			<n id="11"/>
			<n id="12"/>
			<n id="13"/>
			<n id="14"/>
			<n id="15"/>
			<n id="16"/>
			<n id="17"/>
			<n id="18"/>
			<n id="19"/>
			<n id="20"/>
<!-- ... 582 like lines cut -->
		</NodeSet>
		<ElementSet name="unnamed_set01">
			<e id="1"/>
		</ElementSet>
	</Mesh>
	<MeshDomains>
		<SolidDomain name="Part2" mat="Biphasic with solute"/>
		<SolidDomain name="Part2(2)" mat="Biphasic with solute"/>
	</MeshDomains>
	<Boundary>
		<bc name="FixedDisplacement01" type="fix" node_set="FixedDisplacement01">
			<dofs>x</dofs>
		</bc>
		<bc name="FixedDisplacement02" type="fix" node_set="FixedDisplacement02">
			<dofs>y</dofs>
		</bc>
		<bc name="FixedDisplacement03" type="fix" node_set="FixedDisplacement03">
			<dofs>z</dofs>
		</bc>
		<bc name="PrescribedBC19" type="prescribe" node_set="PrescribedBC19">
			<dof>z</dof>
			<scale lc="2">1</scale>
			<relative>0</relative>
		</bc>
		<bc name="PrescribedBC20" type="prescribe" node_set="PrescribedBC20">
			<dof>p</dof>
			<scale lc="3">-0.0024776</scale>
			<relative>0</relative>
		</bc>
		<bc name="PrescribedBC21" type="prescribe" node_set="PrescribedBC21">
			<dof>c1</dof>
			<scale lc="4">1</scale>
			<relative>0</relative>
		</bc>
	</Boundary>
	<Initial>
		<ic type="init_dof" node_set="InitialConcentration01">
			<dof>c1</dof>
			<value>0.006</value>
		</ic>
	</Initial>
	<LoadData>
		<load_controller id="1" type="loadcurve">
			<interpolate>LINEAR</interpolate>
			<extend>EXTRAPOLATE</extend>
			<points>
				<point>0,0</point>
				<point>1,0.2</point>
			</points>
		</load_controller>
		<load_controller id="2" type="loadcurve">
			<interpolate>STEP</interpolate>
			<points>
				<point>0,0</point>
				<point>0.01,-0.01</point>
			</points>
		</load_controller>
		<load_controller id="3" type="loadcurve">
			<interpolate>STEP</interpolate>
			<points>
				<point>0,0</point>
				<point>0.01,0.006</point>
			</points>
		</load_controller>
		<load_controller id="4" type="loadcurve">
			<interpolate>STEP</interpolate>
			<points>
				<point>0,0</point>
				<point>0.01,0.006</point>
			</points>
		</load_controller>
	</LoadData>
	<Output>
		<plotfile type="febio">
			<var type="displacement"/>
			<var type="relative volume"/>
			<var type="stress"/>
			<var type="effective fluid pressure"/>
			<var type="fluid pressure"/>
			<var type="fluid flux"/>
			<var type="effective solute concentration"/>
			<var type="solute concentration"/>
			<var type="solute flux"/>
		</plotfile>
		<logfile>
			<element_data data="c" elem_set="unnamed_set01"/>
		</logfile>
	</Output>
</febio_spec>
