<?xml version="1.0" encoding="ISO-8859-1"?>
<!--
1D diffusion across a biphasicsolute contact interface between two bricks.
-->
<febio_spec version="3.0">
	<Module type="solute"/>
	<Control>
		<analysis>TRANSIENT</analysis>
		<time_steps>300000</time_steps>
		<step_size>0.1</step_size>
		<solver>
			<max_refs>15</max_refs>
			<max_ups>0</max_ups>
			<diverge_reform>1</diverge_reform>
			<reform_each_time_step>1</reform_each_time_step>
			<dtol>0.001</dtol>
			<etol>0.01</etol>
			<rtol>0</rtol>
			<ptol>0.01</ptol>
			<ctol>0.01</ctol>
			<lstol>0.9</lstol>
			<min_residual>1e-20</min_residual>
			<qnmethod>BROYDEN</qnmethod>
			<symmetric_stiffness>0</symmetric_stiffness>
		</solver>
		<time_stepper>
			<dtmin>0.01</dtmin>
			<dtmax lc="1"></dtmax>
			<max_retries>5</max_retries>
			<opt_iter>10</opt_iter>
		</time_stepper>
	</Control>
	<Globals>
		<Constants>
			<T>298</T>
			<R>8.314e-06</R>
			<Fc>0</Fc>
		</Constants>
		<Solutes>
			<solute id="1" name="neutral">
				<charge_number>0</charge_number>
				<molar_mass>1</molar_mass>
				<density>1</density>
			</solute>
		</Solutes>
	</Globals>
	<Material>
		<material id="1" name="Bottom Brick" type="biphasic-solute">
			<phi0>0.2</phi0>
			<solid type="neo-Hookean">
				<density>1</density>
				<E>10</E>
				<v>0</v>
			</solid>
			<permeability type="perm-Holmes-Mow">
				<perm>0.001</perm>
				<M>0</M>
				<alpha>0</alpha>
			</permeability>
			<osmotic_coefficient type="osm-coef-const">
				<osmcoef>1</osmcoef>
			</osmotic_coefficient>
			<solute sol="1">
				<diffusivity type="diff-const-iso">
					<free_diff>0.001</free_diff>
					<diff>0.0005</diff>
				</diffusivity>
				<solubility type="solub-const">
					<solub>1</solub>
				</solubility>
			</solute>
		</material>
		<material id="2" name="Top Brick" type="biphasic-solute">
			<phi0>0.2</phi0>
			<solid type="neo-Hookean">
				<density>1</density>
				<E>10</E>
				<v>0</v>
			</solid>
			<permeability type="perm-Holmes-Mow">
				<perm>0.001</perm>
				<M>0</M>
				<alpha>0</alpha>
			</permeability>
			<osmotic_coefficient type="osm-coef-const">
				<osmcoef>1</osmcoef>
			</osmotic_coefficient>
			<solute sol="1">
				<diffusivity type="diff-const-iso">
					<free_diff>0.001</free_diff>
					<diff>0.0005</diff>
				</diffusivity>
				<solubility type="solub-const">
					<solub>1</solub>
				</solubility>
			</solute>
		</material>
	</Material>
	<Mesh>
		<Nodes name="Object01">
			<node id="1">-0.5,-1,0</node>
			<node id="2">-0.5,-1,1</node>
			<node id="3">-0.5,-0.99283808,0</node>
			<node id="4">-0.5,-0.99283808,1</node>
			<node id="5">-0.5,-0.98281139,0</node>
			<node id="6">-0.5,-0.98281139,1</node>
			<node id="7">-0.5,-0.96877402,0</node>
			<node id="8">-0.5,-0.96877402,1</node>
			<node id="9">-0.5,-0.94912171,0</node>
			<node id="10">-0.5,-0.94912171,1</node>
			<node id="11">-0.5,-0.92160847,0</node>
			<node id="12">-0.5,-0.92160847,1</node>
			<node id="13">-0.5,-0.88308993,0</node>
			<node id="14">-0.5,-0.88308993,1</node>
			<node id="15">-0.5,-0.82916399,0</node>
			<node id="16">-0.5,-0.82916399,1</node>
			<node id="17">-0.5,-0.75366766,0</node>
			<node id="18">-0.5,-0.75366766,1</node>
			<node id="19">-0.5,-0.6479728,0</node>
			<node id="20">-0.5,-0.6479728,1</node>
<!-- ... 148 like lines cut -->
		</Nodes>
		<Elements type="hex8" name="Part1">
			<elem id="1">1,43,45,3,2,44,46,4</elem>
			<elem id="2">3,45,47,5,4,46,48,6</elem>
			<elem id="3">5,47,49,7,6,48,50,8</elem>
			<elem id="4">7,49,51,9,8,50,52,10</elem>
			<elem id="5">9,51,53,11,10,52,54,12</elem>
			<elem id="6">11,53,55,13,12,54,56,14</elem>
			<elem id="7">13,55,57,15,14,56,58,16</elem>
			<elem id="8">15,57,59,17,16,58,60,18</elem>
			<elem id="9">17,59,61,19,18,60,62,20</elem>
			<elem id="10">19,61,63,21,20,62,64,22</elem>
			<elem id="11">21,63,65,23,22,64,66,24</elem>
			<elem id="12">23,65,67,25,24,66,68,26</elem>
			<elem id="13">25,67,69,27,26,68,70,28</elem>
			<elem id="14">27,69,71,29,28,70,72,30</elem>
			<elem id="15">29,71,73,31,30,72,74,32</elem>
			<elem id="16">31,73,75,33,32,74,76,34</elem>
			<elem id="17">33,75,77,35,34,76,78,36</elem>
			<elem id="18">35,77,79,37,36,78,80,38</elem>
			<elem id="19">37,79,81,39,38,80,82,40</elem>
			<elem id="20">39,81,83,41,40,82,84,42</elem>
		</Elements>
		<Elements type="hex8" name="Part2">
			<elem id="21">85,127,129,87,86,128,130,88</elem>
			<elem id="22">87,129,131,89,88,130,132,90</elem>
			<elem id="23">89,131,133,91,90,132,134,92</elem>
			<elem id="24">91,133,135,93,92,134,136,94</elem>
			<elem id="25">93,135,137,95,94,136,138,96</elem>
			<elem id="26">95,137,139,97,96,138,140,98</elem>
			<elem id="27">97,139,141,99,98,140,142,100</elem>
			<elem id="28">99,141,143,101,100,142,144,102</elem>
			<elem id="29">101,143,145,103,102,144,146,104</elem>
			<elem id="30">103,145,147,105,104,146,148,106</elem>
			<elem id="31">105,147,149,107,106,148,150,108</elem>
			<elem id="32">107,149,151,109,108,150,152,110</elem>
			<elem id="33">109,151,153,111,110,152,154,112</elem>
			<elem id="34">111,153,155,113,112,154,156,114</elem>
			<elem id="35">113,155,157,115,114,156,158,116</elem>
			<elem id="36">115,157,159,117,116,158,160,118</elem>
			<elem id="37">117,159,161,119,118,160,162,120</elem>
			<elem id="38">119,161,163,121,120,162,164,122</elem>
			<elem id="39">121,163,165,123,122,164,166,124</elem>
			<elem id="40">123,165,167,125,124,166,168,126</elem>
		</Elements>
		<NodeSet name="FixedDisplacement01">
			<n id="1"/>
			<n id="2"/>
			<n id="3"/>
			<n id="4"/>
			<n id="5"/>
			<n id="6"/>
			<n id="7"/>
			<n id="8"/>
			<n id="9"/>
			<n id="10"/>
			<n id="11"/>
			<n id="12"/>
			<n id="13"/>
			<n id="14"/>
			<n id="15"/>
			<n id="16"/>
			<n id="17"/>
			<n id="18"/>
			<n id="19"/>
			<n id="20"/>
<!-- ... 148 like lines cut -->
		</NodeSet>
		<NodeSet name="FixedDisplacement02">
			<n id="1"/>
			<n id="2"/>
			<n id="3"/>
			<n id="4"/>
			<n id="5"/>
			<n id="6"/>
			<n id="7"/>
			<n id="8"/>
			<n id="9"/>
			<n id="10"/>
			<n id="11"/>
			<n id="12"/>
			<n id="13"/>
			<n id="14"/>
			<n id="15"/>
			<n id="16"/>
			<n id="17"/>
			<n id="18"/>
			<n id="19"/>
			<n id="20"/>
<!-- ... 148 like lines cut -->
		</NodeSet>
		<NodeSet name="FixedDisplacement03">
			<n id="1"/>
			<n id="2"/>
			<n id="43"/>
			<n id="44"/>
		</NodeSet>
		<NodeSet name="PrescribedBC27">
			<n id="125"/>
			<n id="126"/>
			<n id="167"/>
			<n id="168"/>
		</NodeSet>
		<NodeSet name="PrescribedBC28">
			<n id="1"/>
			<n id="2"/>
			<n id="43"/>
			<n id="44"/>
		</NodeSet>
		<NodeSet name="PrescribedBC29">
			<n id="1"/>
			<n id="2"/>
			<n id="43"/>
			<n id="44"/>
		</NodeSet>
		<NodeSet name="unnamed_set01">
			<n id="42"/>
		</NodeSet>
		<NodeSet name="unnamed_set02">
			<n id="86"/>
			<n id="88"/>
			<n id="90"/>
			<n id="92"/>
			<n id="94"/>
			<n id="96"/>
			<n id="98"/>
			<n id="100"/>
			<n id="102"/>
			<n id="104"/>
			<n id="106"/>
			<n id="108"/>
			<n id="110"/>
			<n id="112"/>
			<n id="114"/>
			<n id="116"/>
			<n id="118"/>
			<n id="120"/>
			<n id="122"/>
			<n id="124"/>
			<n id="126"/>
		</NodeSet>
		<NodeSet name="unnamed_set03">
			<n id="2"/>
			<n id="4"/>
			<n id="6"/>
			<n id="8"/>
			<n id="10"/>
			<n id="12"/>
			<n id="14"/>
			<n id="16"/>
			<n id="18"/>
			<n id="20"/>
			<n id="22"/>
			<n id="24"/>
			<n id="26"/>
			<n id="28"/>
			<n id="30"/>
			<n id="32"/>
			<n id="34"/>
			<n id="36"/>
			<n id="38"/>
			<n id="40"/>
			<n id="42"/>
		</NodeSet>
		<NodeSet name="unnamed_set01">
			<n id="42"/>
		</NodeSet>
		<NodeSet name="unnamed_set02">
			<n id="86"/>
			<n id="88"/>
			<n id="90"/>
			<n id="92"/>
			<n id="94"/>
			<n id="96"/>
			<n id="98"/>
			<n id="100"/>
			<n id="102"/>
			<n id="104"/>
			<n id="106"/>
			<n id="108"/>
			<n id="110"/>
			<n id="112"/>
			<n id="114"/>
			<n id="116"/>
			<n id="118"/>
			<n id="120"/>
			<n id="122"/>
			<n id="124"/>
			<n id="126"/>
		</NodeSet>
		<NodeSet name="unnamed_set03">
			<n id="2"/>
			<n id="4"/>
			<n id="6"/>
			<n id="8"/>
			<n id="10"/>
			<n id="12"/>
			<n id="14"/>
			<n id="16"/>
			<n id="18"/>
			<n id="20"/>
			<n id="22"/>
			<n id="24"/>
			<n id="26"/>
			<n id="28"/>
			<n id="30"/>
			<n id="32"/>
			<n id="34"/>
			<n id="36"/>
			<n id="38"/>
			<n id="40"/>
			<n id="42"/>
		</NodeSet>
		<Surface name="PrimarySurface01">
			<quad4 id="1">85,127,128,86</quad4>
		</Surface>
		<Surface name="SecondarySurface01">
			<quad4 id="1">83,41,42,84</quad4>
		</Surface>
		<SurfacePair name="BiphasicSoluteContact01">
			<primary>PrimarySurface01</primary>
			<secondary>SecondarySurface01</secondary>
		</SurfacePair>
	</Mesh>
	<MeshDomains>
		<SolidDomain name="Part1" mat="Bottom Brick"/>
		<SolidDomain name="Part2" mat="Top Brick"/>
	</MeshDomains>
	<Boundary>
		<bc name="FixedDisplacement01" type="fix" node_set="FixedDisplacement01">
			<dofs>x</dofs>
		</bc>
		<bc name="FixedDisplacement02" type="fix" node_set="FixedDisplacement02">
			<dofs>z</dofs>
		</bc>
		<bc name="FixedDisplacement03" type="fix" node_set="FixedDisplacement03">
			<dofs>y</dofs>
		</bc>
		<bc name="PrescribedBC27" type="prescribe" node_set="PrescribedBC27">
			<dof>y</dof>
			<scale lc="2">1</scale>
			<relative>0</relative>
		</bc>
		<bc name="PrescribedBC28" type="prescribe" node_set="PrescribedBC28">
			<dof>p</dof>
			<scale lc="3">1</scale>
			<relative>0</relative>
		</bc>
		<bc name="PrescribedBC29" type="prescribe" node_set="PrescribedBC29">
			<dof>c1</dof>
			<scale lc="4">1</scale>
			<relative>0</relative>
		</bc>
	</Boundary>
	<Contact>
		<contact type="sliding-biphasic-solute" name="BiphasicSoluteContact01" surface_pair="BiphasicSoluteContact01">
			<laugon>0</laugon>
			<tolerance>0.2</tolerance>
			<gaptol>0</gaptol>
			<ptol>0</ptol>
			<ctol>0</ctol>
			<penalty>100</penalty>
			<two_pass>1</two_pass>
			<auto_penalty>1</auto_penalty>
			<pressure_penalty>100</pressure_penalty>
			<symmetric_stiffness>0</symmetric_stiffness>
			<concentration_penalty>100</concentration_penalty>
			<ambient_pressure>0</ambient_pressure>
			<ambient_concentration>0</ambient_concentration>
			<search_radius>1</search_radius>
			<seg_up>0</seg_up>
			<minaug>0</minaug>
			<maxaug>10</maxaug>
			<search_tol>0.01</search_tol>
			<update_penalty>0</update_penalty>
		</contact>
	</Contact>
	<LoadData>
		<load_controller id="1" type="loadcurve">
			<interpolate>STEP</interpolate>
			<points>
				<point>0,0</point>
				<point>1,0.1</point>
				<point>10,1</point>
				<point>100,10</point>
				<point>1000,100</point>
				<point>10000,100</point>
				<point>100000,1000</point>
			</points>
		</load_controller>
		<load_controller id="2" type="loadcurve">
			<interpolate>STEP</interpolate>
			<points>
				<point>0,0</point>
				<point>1,-0.001</point>
			</points>
		</load_controller>
		<load_controller id="3" type="loadcurve">
			<interpolate>STEP</interpolate>
			<points>
				<point>0,0</point>
				<point>1,-0.00247757</point>
			</points>
		</load_controller>
		<load_controller id="4" type="loadcurve">
			<interpolate>STEP</interpolate>
			<points>
				<point>0,0</point>
				<point>1,1</point>
			</points>
		</load_controller>
	</LoadData>
	<Output>
		<plotfile type="febio">
			<var type="contact gap"/>
			<var type="contact pressure"/>
			<var type="displacement"/>
			<var type="relative volume"/>
			<var type="stress"/>
			<var type="effective fluid pressure"/>
			<var type="fluid pressure"/>
			<var type="fluid flux"/>
			<var type="solute concentration"/>
			<var type="solute flux"/>
		</plotfile>
		<logfile>
			<node_data data="c" node_set="unnamed_set01"/>
			<node_data data="y;uy;p;c" node_set="unnamed_set02"/>
			<node_data data="y;uy;p;c" node_set="unnamed_set03"/>
		</logfile>
	</Output>
</febio_spec>
