<?xml version="1.0" encoding="ISO-8859-1"?>
<!--
A rectangular strip consisting of hex20 elements is modeled with a
continuous fiber distribution with a 3D von-Mises distribution
density. A single fiber bundle is oriented along the
x-direction. The left and right ends of the strip are interfaced
with rigid bodies. The left end is fixed and a displacement is prescribed on the
right end, along x.

The fiber-exponential-power-law properties are selected to
produce a highly nonlinear response for the reaction force.
-->
<febio_spec version="3.0">
	<Module type="solid"/>
	<Control>
		<analysis>STATIC</analysis>
		<time_steps>100</time_steps>
		<step_size>0.01</step_size>
		<solver>
			<max_refs>25</max_refs>
			<max_ups>0</max_ups>
			<diverge_reform>1</diverge_reform>
			<reform_each_time_step>1</reform_each_time_step>
			<dtol>0.001</dtol>
			<etol>0.01</etol>
			<rtol>0</rtol>
			<lstol>0.9</lstol>
			<min_residual>1e-20</min_residual>
			<qnmethod>BFGS</qnmethod>
			<rhoi>-2</rhoi>
		</solver>
		<time_stepper>
			<dtmin>1e-05</dtmin>
			<dtmax>0.1</dtmax>
			<max_retries>10</max_retries>
			<opt_iter>10</opt_iter>
			<aggressiveness>1</aggressiveness>
		</time_stepper>
	</Control>
	<Globals>
		<Constants>
			<T>0</T>
			<R>0</R>
			<Fc>0</Fc>
		</Constants>
	</Globals>
	<Material>
		<material id="1" name="Material" type="solid mixture">
			<density>1</density>
			<solid type="neo-Hookean">
				<E>1</E>
				<v>0.3</v>
			</solid>
			<solid type="continuous fiber distribution">
				<mat_axis type="vector">
					<a>1,0,0</a>
					<d>0,1,0</d>
				</mat_axis>
				<fibers type="fiber-exp-pow">
					<alpha>20</alpha>
					<beta>2</beta>
					<ksi>5</ksi>
					<mu>0</mu>
				</fibers>
				<distribution type="elliptical">
					<spa1>5</spa1>
					<spa2>1</spa2>
				</distribution>
				<scheme type="fibers-2d-trapezoidal">
					<nth>31</nth>
				</scheme>
			</solid>
		</material>
		<material id="2" name="LeftPlaten" type="rigid body">
			<density>1</density>
			<center_of_mass>0,0,0</center_of_mass>
		</material>
		<material id="3" name="RightPlaten" type="rigid body">
			<density>1</density>
			<center_of_mass>0,0,0</center_of_mass>
		</material>
	</Material>
	<Mesh>
		<Nodes name="Object01">
			<node id="1">-5,-1.5,0</node>
			<node id="2">-5,-1.5,0.125</node>
			<node id="3">-5,-1.5,0.25</node>
			<node id="4">-5,-1.5,0.375</node>
			<node id="5">-5,-1.5,0.5</node>
			<node id="6">-5,-1.125,0</node>
			<node id="7">-5,-1.125,0.25</node>
			<node id="8">-5,-1.125,0.5</node>
			<node id="9">-5,-0.75,0</node>
			<node id="10">-5,-0.75,0.125</node>
			<node id="11">-5,-0.75,0.25</node>
			<node id="12">-5,-0.75,0.375</node>
			<node id="13">-5,-0.75,0.5</node>
			<node id="14">-5,-0.375,0</node>
			<node id="15">-5,-0.375,0.25</node>
			<node id="16">-5,-0.375,0.5</node>
			<node id="17">-5,0,0</node>
			<node id="18">-5,0,0.125</node>
			<node id="19">-5,0,0.25</node>
			<node id="20">-5,0,0.375</node>
<!-- ... 537 like lines cut -->
		</Nodes>
		<Elements type="hex20" name="Part1">
			<elem id="1">     1,    53,    61,     9,     3,    55,    63,    11,    38,    58,    41,     6,    39,    59,    42,     7,     2,    54,    62,    10</elem>
			<elem id="2">     3,    55,    63,    11,     5,    57,    65,    13,    39,    59,    42,     7,    40,    60,    43,     8,     4,    56,    64,    12</elem>
			<elem id="3">     9,    61,    69,    17,    11,    63,    71,    19,    41,    66,    44,    14,    42,    67,    45,    15,    10,    62,    70,    18</elem>
			<elem id="4">    11,    63,    71,    19,    13,    65,    73,    21,    42,    67,    45,    15,    43,    68,    46,    16,    12,    64,    72,    20</elem>
			<elem id="5">    17,    69,    77,    25,    19,    71,    79,    27,    44,    74,    47,    22,    45,    75,    48,    23,    18,    70,    78,    26</elem>
			<elem id="6">    19,    71,    79,    27,    21,    73,    81,    29,    45,    75,    48,    23,    46,    76,    49,    24,    20,    72,    80,    28</elem>
			<elem id="7">    25,    77,    85,    33,    27,    79,    87,    35,    47,    82,    50,    30,    48,    83,    51,    31,    26,    78,    86,    34</elem>
			<elem id="8">    27,    79,    87,    35,    29,    81,    89,    37,    48,    83,    51,    31,    49,    84,    52,    32,    28,    80,    88,    36</elem>
			<elem id="9">    53,   105,   113,    61,    55,   107,   115,    63,    90,   110,    93,    58,    91,   111,    94,    59,    54,   106,   114,    62</elem>
			<elem id="10">    55,   107,   115,    63,    57,   109,   117,    65,    91,   111,    94,    59,    92,   112,    95,    60,    56,   108,   116,    64</elem>
			<elem id="11">    61,   113,   121,    69,    63,   115,   123,    71,    93,   118,    96,    66,    94,   119,    97,    67,    62,   114,   122,    70</elem>
			<elem id="12">    63,   115,   123,    71,    65,   117,   125,    73,    94,   119,    97,    67,    95,   120,    98,    68,    64,   116,   124,    72</elem>
			<elem id="13">    69,   121,   129,    77,    71,   123,   131,    79,    96,   126,    99,    74,    97,   127,   100,    75,    70,   122,   130,    78</elem>
			<elem id="14">    71,   123,   131,    79,    73,   125,   133,    81,    97,   127,   100,    75,    98,   128,   101,    76,    72,   124,   132,    80</elem>
			<elem id="15">    77,   129,   137,    85,    79,   131,   139,    87,    99,   134,   102,    82,   100,   135,   103,    83,    78,   130,   138,    86</elem>
			<elem id="16">    79,   131,   139,    87,    81,   133,   141,    89,   100,   135,   103,    83,   101,   136,   104,    84,    80,   132,   140,    88</elem>
			<elem id="17">   105,   157,   165,   113,   107,   159,   167,   115,   142,   162,   145,   110,   143,   163,   146,   111,   106,   158,   166,   114</elem>
			<elem id="18">   107,   159,   167,   115,   109,   161,   169,   117,   143,   163,   146,   111,   144,   164,   147,   112,   108,   160,   168,   116</elem>
			<elem id="19">   113,   165,   173,   121,   115,   167,   175,   123,   145,   170,   148,   118,   146,   171,   149,   119,   114,   166,   174,   122</elem>
			<elem id="20">   115,   167,   175,   123,   117,   169,   177,   125,   146,   171,   149,   119,   147,   172,   150,   120,   116,   168,   176,   124</elem>
<!-- ... 60 like lines cut -->
		</Elements>
		<NodeSet name="RigidNodeset 1">
			<n id="1"/>
			<n id="2"/>
			<n id="3"/>
			<n id="4"/>
			<n id="5"/>
			<n id="6"/>
			<n id="7"/>
			<n id="8"/>
			<n id="9"/>
			<n id="10"/>
			<n id="11"/>
			<n id="12"/>
			<n id="13"/>
			<n id="14"/>
			<n id="15"/>
			<n id="16"/>
			<n id="17"/>
			<n id="18"/>
			<n id="19"/>
			<n id="20"/>
<!-- ... 17 like lines cut -->
		</NodeSet>
		<NodeSet name="RigidNodeset 2">
			<n id="521"/>
			<n id="522"/>
			<n id="523"/>
			<n id="524"/>
			<n id="525"/>
			<n id="526"/>
			<n id="527"/>
			<n id="528"/>
			<n id="529"/>
			<n id="530"/>
			<n id="531"/>
			<n id="532"/>
			<n id="533"/>
			<n id="534"/>
			<n id="535"/>
			<n id="536"/>
			<n id="537"/>
			<n id="538"/>
			<n id="539"/>
			<n id="540"/>
<!-- ... 17 like lines cut -->
		</NodeSet>
	</Mesh>
	<MeshDomains>
		<SolidDomain name="Part1" mat="Material"/>
	</MeshDomains>
	<Boundary>
		<bc name="RigidInterface02" type="rigid" node_set="RigidNodeset 1">
			<rb>2</rb>
		</bc>
		<bc name="RigidInterface03" type="rigid" node_set="RigidNodeset 2">
			<rb>3</rb>
		</bc>
	</Boundary>
	<Rigid>
		<rigid_constraint name="RigidFixed07" type="fix">
			<rb>2</rb>
			<dofs>Rx,Ry,Rz,Ru,Rv,Rw</dofs>
		</rigid_constraint>
		<rigid_constraint name="RigidFixed08" type="fix">
			<rb>3</rb>
			<dofs>Ry,Rz,Ru,Rv,Rw</dofs>
		</rigid_constraint>
		<rigid_constraint name="RigidDisplacement04" type="prescribe">
			<rb>3</rb>
			<dof>Rx</dof>
			<value lc="1">1</value>
		</rigid_constraint>
	</Rigid>
	<Contact>
	</Contact>
	<LoadData>
		<load_controller id="1" type="loadcurve">
			<interpolate>SMOOTH</interpolate>
			<points>
				<point>0,0</point>
				<point>1,2</point>
			</points>
		</load_controller>
	</LoadData>
	<Output>
		<plotfile type="febio">
			<var type="displacement"/>
			<var type="reaction forces"/>
			<var type="relative volume"/>
			<var type="strain energy density"/>
			<var type="stress"/>
		</plotfile>
		<logfile>
			<rigid_body_data data="Fx"/>
		</logfile>
	</Output>
</febio_spec>
