<?xml version="1.0" encoding="ISO-8859-1"?>
<febio_spec version="3.0">
	<Module type="CG-solid"/>
	<Control>
		<analysis>STATIC</analysis>
		<time_steps>10</time_steps>
		<step_size>0.1</step_size>
		<solver>
			<dtol>1e-6</dtol>
			<etol>0.01</etol>
			<rtol>0</rtol>
			<lstol>0.9</lstol>
			<min_residual>1e-20</min_residual>
		</solver>
		<time_stepper>
			<dtmin>0.1</dtmin>
			<dtmax>0.1</dtmax>
			<max_retries>5</max_retries>
			<opt_iter>10</opt_iter>
		</time_stepper>
	</Control>
	<Globals>
		<Constants>
			<T>0</T>
			<R>0</R>
			<Fc>0</Fc>
		</Constants>
	</Globals>
	<Material>
		<material id="1" name="Material1" type="neo-Hookean">
			<density>1</density>
			<E>100</E>
			<v>0.45</v>
		</material>
	</Material>
	<Mesh>
		<Nodes name="Object1">
			<node id="1">9,0,0</node>
			<node id="2">10,0,0</node>
			<node id="3">0,9,0</node>
			<node id="4">0,10,0</node>
			<node id="5">-9,0,0</node>
			<node id="6">-10,0,0</node>
			<node id="7">9,0,1</node>
			<node id="8">10,0,1</node>
			<node id="9">0,9,1</node>
			<node id="10">0,10,1</node>
			<node id="11">-9,0,1</node>
			<node id="12">-10,0,1</node>
			<node id="13">9.97858923,0.654031292,0</node>
			<node id="14">9.91444861,1.30526192,0</node>
			<node id="15">9.8078528,1.95090322,0</node>
			<node id="16">9.65925826,2.58819045,0</node>
			<node id="17">9.46930129,3.21439465,0</node>
			<node id="18">9.23879533,3.82683432,0</node>
			<node id="19">8.96872742,4.4228869,0</node>
			<node id="20">8.66025404,5,0</node>
<!-- ... 176 like lines cut -->
		</Nodes>
		<Elements type="hex8" name="Part1">
			<elem id="1">1,2,13,81,7,8,58,82</elem>
			<elem id="2">81,13,14,80,82,58,57,83</elem>
			<elem id="3">80,14,15,79,83,57,56,84</elem>
			<elem id="4">79,15,16,78,84,56,55,85</elem>
			<elem id="5">78,16,17,77,85,55,54,86</elem>
			<elem id="6">77,17,18,76,86,54,53,87</elem>
			<elem id="7">76,18,19,75,87,53,52,88</elem>
			<elem id="8">75,19,20,74,88,52,51,89</elem>
			<elem id="9">74,20,21,73,89,51,50,90</elem>
			<elem id="10">73,21,22,72,90,50,49,91</elem>
			<elem id="11">72,22,23,71,91,49,48,92</elem>
			<elem id="12">71,23,24,70,92,48,47,93</elem>
			<elem id="13">70,24,25,69,93,47,46,94</elem>
			<elem id="14">69,25,26,68,94,46,45,95</elem>
			<elem id="15">68,26,27,67,95,45,44,96</elem>
			<elem id="16">67,27,28,66,96,44,43,97</elem>
			<elem id="17">66,28,29,65,97,43,42,98</elem>
			<elem id="18">65,29,30,64,98,42,41,99</elem>
			<elem id="19">64,30,31,63,99,41,40,100</elem>
			<elem id="20">63,31,32,62,100,40,39,101</elem>
<!-- ... 28 like lines cut -->
		</Elements>
		<NodeSet name="fxyz">
			<n id="1"/>
			<n id="2"/>
			<n id="5"/>
			<n id="6"/>
			<n id="7"/>
			<n id="8"/>
			<n id="11"/>
			<n id="12"/>
		</NodeSet>
		<NodeSet name="NodalLoad1">
			<n id="3"/>
			<n id="4"/>
			<n id="9"/>
			<n id="10"/>
		</NodeSet>
	</Mesh>
	<MeshDomains>
		<SolidDomain name="Part1" mat="Material1"/>
	</MeshDomains>
	<Boundary>
		<bc name="fxyz" type="fix" node_set="fxyz">
			<dofs>x,y,z</dofs>
		</bc>
	</Boundary>
	<Loads>
		<nodal_load name="NodalLoad1" type="nodal_load" node_set="NodalLoad1">
			<dof>y</dof>
			<scale lc="1">-1</scale>
		</nodal_load>
	</Loads>
	<LoadData>
		<load_controller id="1" type="loadcurve">
			<interpolate>SMOOTH</interpolate>
			<points>
				<point>0,0</point>
				<point>1,1</point>
			</points>
		</load_controller>
	</LoadData>
	<Output>
		<plotfile type="febio">
			<var type="displacement"/>
			<var type="relative volume"/>
			<var type="stress"/>
		</plotfile>
	</Output>
</febio_spec>
