<?xml version="1.0" encoding="ISO-8859-1"?>
<febio_spec version="3.0">
	<Module type="reaction-diffusion"/>
	<Control>
		<time_steps>100</time_steps>
		<step_size>0.1</step_size>
		<solver>
			<max_refs>15</max_refs>
			<max_ups>0</max_ups>
		</solver>
	</Control>
	<Globals>
		<Solutes>
			<solute id="1" name="soluble"/>
		</Solutes>
	</Globals>
	<Material>
		<material id="1" name="Cartilage" type="reaction-diffusion">
			<solid_volume_fraction>0</solid_volume_fraction>
			<species name="soluble">
				<diffusivity>1e-3</diffusivity>
			</species>
		</material>
	</Material>
	<Mesh>
		<Nodes name="Object01">
			<node id="1">-0.05,-0.5,0</node>
			<node id="2">-0.05,-0.5,1</node>
			<node id="3">-0.05,0.5,0</node>
			<node id="4">-0.05,0.5,1</node>
			<node id="5">-0.045,-0.5,0</node>
			<node id="6">-0.045,-0.5,1</node>
			<node id="7">-0.045,0.5,0</node>
			<node id="8">-0.045,0.5,1</node>
			<node id="9">-0.04,-0.5,0</node>
			<node id="10">-0.04,-0.5,1</node>
			<node id="11">-0.04,0.5,0</node>
			<node id="12">-0.04,0.5,1</node>
			<node id="13">-0.035,-0.5,0</node>
			<node id="14">-0.035,-0.5,1</node>
			<node id="15">-0.035,0.5,0</node>
			<node id="16">-0.035,0.5,1</node>
			<node id="17">-0.03,-0.5,0</node>
			<node id="18">-0.03,-0.5,1</node>
			<node id="19">-0.03,0.5,0</node>
			<node id="20">-0.03,0.5,1</node>
<!-- ... 64 like lines cut -->
		</Nodes>
		<Elements type="hex8" name="Part1">
			<elem id="1">1,5,7,3,2,6,8,4</elem>
			<elem id="2">5,9,11,7,6,10,12,8</elem>
			<elem id="3">9,13,15,11,10,14,16,12</elem>
			<elem id="4">13,17,19,15,14,18,20,16</elem>
			<elem id="5">17,21,23,19,18,22,24,20</elem>
			<elem id="6">21,25,27,23,22,26,28,24</elem>
			<elem id="7">25,29,31,27,26,30,32,28</elem>
			<elem id="8">29,33,35,31,30,34,36,32</elem>
			<elem id="9">33,37,39,35,34,38,40,36</elem>
			<elem id="10">37,41,43,39,38,42,44,40</elem>
			<elem id="11">41,45,47,43,42,46,48,44</elem>
			<elem id="12">45,49,51,47,46,50,52,48</elem>
			<elem id="13">49,53,55,51,50,54,56,52</elem>
			<elem id="14">53,57,59,55,54,58,60,56</elem>
			<elem id="15">57,61,63,59,58,62,64,60</elem>
			<elem id="16">61,65,67,63,62,66,68,64</elem>
			<elem id="17">65,69,71,67,66,70,72,68</elem>
			<elem id="18">69,73,75,71,70,74,76,72</elem>
			<elem id="19">73,77,79,75,74,78,80,76</elem>
			<elem id="20">77,81,83,79,78,82,84,80</elem>
		</Elements>
		<NodeSet name="set1">
			<n id="81"/>
			<n id="82"/>
			<n id="83"/>
			<n id="84"/>
		</NodeSet>
		<NodeSet name="set2">
			<n id="1"/>
			<n id="2"/>
			<n id="3"/>
			<n id="4"/>
		</NodeSet>
		<NodeSet name="Object01">
			<n id="1"/>
			<n id="2"/>
			<n id="3"/>
			<n id="4"/>
			<n id="5"/>
			<n id="6"/>
			<n id="7"/>
			<n id="8"/>
			<n id="9"/>
			<n id="10"/>
			<n id="11"/>
			<n id="12"/>
			<n id="13"/>
			<n id="14"/>
			<n id="15"/>
			<n id="16"/>
			<n id="17"/>
			<n id="18"/>
			<n id="19"/>
			<n id="20"/>
<!-- ... 64 like lines cut -->
		</NodeSet>
	</Mesh>
	<MeshDomains>
		<SolidDomain name="Part1" mat="Cartilage"/>
	</MeshDomains>
	<MeshData>
		<NodeData node_set="Object01" name="IC" generator="math">
			<math>cos(0.5*pi*X/0.05)</math>
		</NodeData>
	</MeshData>
	<Boundary>
		<bc name="FixedConcentration01" type="fix" node_set="set1">
			<dofs>c1</dofs>
		</bc>
		<bc name="FixedConcentration02" type="fix" node_set="set2">
			<dofs>c1</dofs>
		</bc>
	</Boundary>
	<Initial>
		<ic type="init_dof" node_set="Object01">
			<dof>c1</dof>
			<value type="map">IC</value>
		</ic>
	</Initial>
	<Output>
		<plotfile type="febio">
			<var type="concentration['c1']"/>
			<var type="actual concentration['c1']"/>
			<var type="concentration flux['c1']"/>
			<var type="solid volume fraction"/>
		</plotfile>
	</Output>
</febio_spec>
