<?xml version="1.0" encoding="ISO-8859-1"?>
<!--
Problem Description:
	An element with prescribed displacement of -0.5 units in the z-direction compresses
	a 5x5x4 element block with sliding contact.
Main Features:
	Contact using the sliding_with_gaps algorithm
Secondary Features:
	
Materials:
	Mooney-Rivlin
Degrees of Freedom: 368
Results:
	Steps Completed: 6
	Equilibrium Iterations: 31
	Right Hand Evaluations: 44
	Siffness Reformations: 7
	Other:
		The bottom of the top element (node 187) has a z-displacement of -0.215 at time t=1.
Comments:
	Convergence and contact penetration are improved by setting auto="on" in the contact penalty.
-->
<febio_spec version="3.0">
	<Module type="solid"/>
	<Control>
		<analysis>STATIC</analysis>
		<time_steps>10</time_steps>
		<step_size>0.1</step_size>
		<solver>
			<max_refs>15</max_refs>
			<max_ups>10</max_ups>
			<diverge_reform>1</diverge_reform>
			<reform_each_time_step>1</reform_each_time_step>
			<dtol>0.001</dtol>
			<etol>0.01</etol>
			<rtol>1e+10</rtol>
			<lstol>0.9</lstol>
			<min_residual>1e-20</min_residual>
			<qnmethod>BFGS</qnmethod>
			<rhoi>-2</rhoi>
		</solver>
		<time_stepper>
			<dtmin>0.0333333</dtmin>
			<dtmax>0.3</dtmax>
			<max_retries>5</max_retries>
			<opt_iter>11</opt_iter>
		</time_stepper>
	</Control>
	<Globals>
		<Constants>
			<T>298</T>
			<R>8.314e-06</R>
			<Fc>0</Fc>
		</Constants>
	</Globals>
	<Material>
		<material id="1" name="Material 1" type="Mooney-Rivlin">
			<density>1</density>
			<c1>100</c1>
			<c2>0</c2>
			<k>933.333</k>
		</material>
	</Material>
	<Mesh>
		<Nodes name="Object01">
			<node id="1">-0.5,-0.5,0</node>
			<node id="2">-0.5,-0.5,0.125</node>
			<node id="3">-0.5,-0.5,0.25</node>
			<node id="4">-0.5,-0.5,0.375</node>
			<node id="5">-0.5,-0.5,0.5</node>
			<node id="6">-0.5,-0.30000001,0</node>
			<node id="7">-0.5,-0.30000001,0.125</node>
			<node id="8">-0.5,-0.30000001,0.25</node>
			<node id="9">-0.5,-0.30000001,0.375</node>
			<node id="10">-0.5,-0.30000001,0.5</node>
			<node id="11">-0.5,-0.1,0</node>
			<node id="12">-0.5,-0.1,0.125</node>
			<node id="13">-0.5,-0.1,0.25</node>
			<node id="14">-0.5,-0.1,0.375</node>
			<node id="15">-0.5,-0.1,0.5</node>
			<node id="16">-0.5,0.1,0</node>
			<node id="17">-0.5,0.1,0.125</node>
			<node id="18">-0.5,0.1,0.25</node>
			<node id="19">-0.5,0.1,0.375</node>
			<node id="20">-0.5,0.1,0.5</node>
<!-- ... 168 like lines cut -->
		</Nodes>
		<Elements type="hex8" name="Part4">
			<elem id="1">1,31,36,6,2,32,37,7</elem>
			<elem id="2">2,32,37,7,3,33,38,8</elem>
			<elem id="3">3,33,38,8,4,34,39,9</elem>
			<elem id="4">4,34,39,9,5,35,40,10</elem>
			<elem id="5">6,36,41,11,7,37,42,12</elem>
			<elem id="6">7,37,42,12,8,38,43,13</elem>
			<elem id="7">8,38,43,13,9,39,44,14</elem>
			<elem id="8">9,39,44,14,10,40,45,15</elem>
			<elem id="9">11,41,46,16,12,42,47,17</elem>
			<elem id="10">12,42,47,17,13,43,48,18</elem>
			<elem id="11">13,43,48,18,14,44,49,19</elem>
			<elem id="12">14,44,49,19,15,45,50,20</elem>
			<elem id="13">16,46,51,21,17,47,52,22</elem>
			<elem id="14">17,47,52,22,18,48,53,23</elem>
			<elem id="15">18,48,53,23,19,49,54,24</elem>
			<elem id="16">19,49,54,24,20,50,55,25</elem>
			<elem id="17">21,51,56,26,22,52,57,27</elem>
			<elem id="18">22,52,57,27,23,53,58,28</elem>
			<elem id="19">23,53,58,28,24,54,59,29</elem>
			<elem id="20">24,54,59,29,25,55,60,30</elem>
<!-- ... 81 like lines cut -->
		</Elements>
		<NodeSet name="FixedDisplacement01">
			<n id="1"/>
			<n id="6"/>
			<n id="11"/>
			<n id="16"/>
			<n id="21"/>
			<n id="26"/>
			<n id="31"/>
			<n id="36"/>
			<n id="41"/>
			<n id="46"/>
			<n id="51"/>
			<n id="56"/>
			<n id="61"/>
			<n id="66"/>
			<n id="71"/>
			<n id="76"/>
			<n id="81"/>
			<n id="86"/>
			<n id="91"/>
			<n id="96"/>
<!-- ... 16 like lines cut -->
		</NodeSet>
		<NodeSet name="FixedDisplacement02">
			<n id="1"/>
			<n id="5"/>
			<n id="6"/>
			<n id="10"/>
			<n id="11"/>
			<n id="15"/>
			<n id="16"/>
			<n id="20"/>
			<n id="21"/>
			<n id="25"/>
			<n id="26"/>
			<n id="30"/>
			<n id="31"/>
			<n id="35"/>
			<n id="36"/>
			<n id="40"/>
			<n id="41"/>
			<n id="45"/>
			<n id="46"/>
			<n id="50"/>
<!-- ... 60 like lines cut -->
		</NodeSet>
		<NodeSet name="FixedDisplacement03">
			<n id="1"/>
			<n id="5"/>
			<n id="6"/>
			<n id="10"/>
			<n id="11"/>
			<n id="15"/>
			<n id="16"/>
			<n id="20"/>
			<n id="21"/>
			<n id="25"/>
			<n id="26"/>
			<n id="30"/>
			<n id="31"/>
			<n id="35"/>
			<n id="36"/>
			<n id="40"/>
			<n id="41"/>
			<n id="45"/>
			<n id="46"/>
			<n id="50"/>
<!-- ... 60 like lines cut -->
		</NodeSet>
		<NodeSet name="PrescribedBC37">
			<n id="182"/>
			<n id="184"/>
			<n id="186"/>
			<n id="188"/>
		</NodeSet>
		<Surface name="PrimarySurface01">
			<quad4 id="1">183,187,185,181</quad4>
		</Surface>
		<Surface name="SecondarySurface01">
			<quad4 id="1">5,35,40,10</quad4>
			<quad4 id="2">10,40,45,15</quad4>
			<quad4 id="3">15,45,50,20</quad4>
			<quad4 id="4">20,50,55,25</quad4>
			<quad4 id="5">25,55,60,30</quad4>
			<quad4 id="6">35,65,70,40</quad4>
			<quad4 id="7">40,70,75,45</quad4>
			<quad4 id="8">45,75,80,50</quad4>
			<quad4 id="9">50,80,85,55</quad4>
			<quad4 id="10">55,85,90,60</quad4>
			<quad4 id="11">65,95,100,70</quad4>
			<quad4 id="12">70,100,105,75</quad4>
			<quad4 id="13">75,105,110,80</quad4>
			<quad4 id="14">80,110,115,85</quad4>
			<quad4 id="15">85,115,120,90</quad4>
			<quad4 id="16">95,125,130,100</quad4>
			<quad4 id="17">100,130,135,105</quad4>
			<quad4 id="18">105,135,140,110</quad4>
			<quad4 id="19">110,140,145,115</quad4>
			<quad4 id="20">115,145,150,120</quad4>
<!-- ... 5 like lines cut -->
		</Surface>
		<ElementSet name="unnamed_set01">
			<e id="92"/>
		</ElementSet>
		<SurfacePair name="SlidingInterface01">
			<primary>PrimarySurface01</primary>
			<secondary>SecondarySurface01</secondary>
		</SurfacePair>
	</Mesh>
	<MeshDomains>
		<SolidDomain name="Part4" mat="Material 1"/>
	</MeshDomains>
	<Boundary>
		<bc name="FixedDisplacement01" type="fix" node_set="FixedDisplacement01">
			<dofs>z</dofs>
		</bc>
		<bc name="FixedDisplacement02" type="fix" node_set="FixedDisplacement02">
			<dofs>y</dofs>
		</bc>
		<bc name="FixedDisplacement03" type="fix" node_set="FixedDisplacement03">
			<dofs>x</dofs>
		</bc>
		<bc name="PrescribedBC37" type="prescribe" node_set="PrescribedBC37">
			<dof>z</dof>
			<scale lc="1">1</scale>
			<relative>0</relative>
		</bc>
	</Boundary>
	<Contact>
		<contact type="sliding-node-on-facet" name="SlidingInterface01" surface_pair="SlidingInterface01">
			<laugon>0</laugon>
			<tolerance>0.1</tolerance>
			<penalty>1000000</penalty>
			<two_pass>0</two_pass>
			<auto_penalty>1</auto_penalty>
			<fric_coeff>0</fric_coeff>
			<fric_penalty>0</fric_penalty>
			<search_tol>0.01</search_tol>
			<minaug>0</minaug>
			<maxaug>10</maxaug>
			<gaptol>0</gaptol>
			<seg_up>0</seg_up>
			<update_penalty>0</update_penalty>
		</contact>
	</Contact>
	<LoadData>
		<load_controller id="1" type="loadcurve">
			<interpolate>LINEAR</interpolate>
			<points>
				<point>0,0</point>
				<point>1,-0.5</point>
			</points>
		</load_controller>
	</LoadData>
	<Output>
		<plotfile type="febio">
			<var type="contact gap"/>
			<var type="contact pressure"/>
			<var type="displacement"/>
			<var type="relative volume"/>
			<var type="stress"/>
		</plotfile>
		<logfile>
			<element_data data="Ez" elem_set="unnamed_set01"/>
		</logfile>
	</Output>
</febio_spec>
