<?xml version="1.0" encoding="ISO-8859-1"?>
<febio_spec version="3.0">
	<Module type="solid"/>
	<Control>
		<analysis>STATIC</analysis>
		<time_steps>10</time_steps>
		<step_size>0.1</step_size>
		<solver>
			<max_refs>15</max_refs>
			<max_ups>10</max_ups>
			<diverge_reform>1</diverge_reform>
			<reform_each_time_step>1</reform_each_time_step>
			<dtol>0.001</dtol>
			<etol>0.01</etol>
			<rtol>0</rtol>
			<lstol>0.9</lstol>
			<min_residual>1e-20</min_residual>
			<qnmethod>BFGS</qnmethod>
			<rhoi>-2</rhoi>
		</solver>
		<time_stepper>
			<dtmin>0.01</dtmin>
			<dtmax lc="1"></dtmax>
			<max_retries>5</max_retries>
			<opt_iter>10</opt_iter>
		</time_stepper>
	</Control>
	<Globals>
		<Constants>
			<T>0</T>
			<R>0</R>
			<Fc>0</Fc>
		</Constants>
	</Globals>
	<Material>
		<material id="1" name="Material 1" type="neo-Hookean">
			<density>1</density>
			<E>1</E>
			<v>0.4</v>
		</material>
	</Material>
	<Mesh>
		<Nodes name="Object01">
			<node id="1">1.3997721e-09,0.64644661,0</node>
			<node id="2">1.3997721e-09,0.76429774,0</node>
			<node id="3">1.3997721e-09,0.88214887,0</node>
			<node id="4">1.3997721e-09,1,0</node>
			<node id="5">0.11785113,0.64644661,0</node>
			<node id="6">0.11785113,0.76429774,0</node>
			<node id="7">0.11785113,0.88214887,0</node>
			<node id="8">0.11785113,1,0</node>
			<node id="9">0.23570226,0.64644661,0</node>
			<node id="10">0.23570226,0.76429774,0</node>
			<node id="11">0.23570226,0.88214887,0</node>
			<node id="12">0.23570226,1,0</node>
			<node id="13">0.35355339,0.64644661,0</node>
			<node id="14">0.35355339,0.76429774,0</node>
			<node id="15">0.35355339,0.88214887,0</node>
			<node id="16">0.35355339,1,0</node>
			<node id="17">-1.2230971e-08,0.53870551,0</node>
			<node id="18">-2.5861715e-08,0.43096441,0</node>
			<node id="19">-3.9492459e-08,0.3232233,0</node>
			<node id="20">-5.3123202e-08,0.2154822,0</node>
<!-- ... 96 like lines cut -->
		</Nodes>
		<Elements type="hex8" name="Part1">
			<elem id="1">1,5,6,2,59,63,64,60</elem>
			<elem id="2">2,6,7,3,60,64,65,61</elem>
			<elem id="3">3,7,8,4,61,65,66,62</elem>
			<elem id="4">5,9,10,6,63,67,68,64</elem>
			<elem id="5">6,10,11,7,64,68,69,65</elem>
			<elem id="6">7,11,12,8,65,69,70,66</elem>
			<elem id="7">9,13,14,10,67,71,72,68</elem>
			<elem id="8">10,14,15,11,68,72,73,69</elem>
			<elem id="9">11,15,16,12,69,73,74,70</elem>
			<elem id="10">1,17,23,5,59,75,81,63</elem>
			<elem id="11">17,18,24,23,75,76,82,81</elem>
			<elem id="12">18,19,25,24,76,77,83,82</elem>
			<elem id="13">19,20,26,25,77,78,84,83</elem>
			<elem id="14">20,21,27,26,78,79,85,84</elem>
			<elem id="15">21,22,28,27,79,80,86,85</elem>
			<elem id="16">5,23,29,9,63,81,87,67</elem>
			<elem id="17">23,24,30,29,81,82,88,87</elem>
			<elem id="18">24,25,31,30,82,83,89,88</elem>
			<elem id="19">25,26,32,31,83,84,90,89</elem>
			<elem id="20">26,27,33,32,84,85,91,90</elem>
<!-- ... 25 like lines cut -->
		</Elements>
		<NodeSet name="FixedDisplacement01">
			<n id="1"/>
			<n id="2"/>
			<n id="3"/>
			<n id="4"/>
			<n id="5"/>
			<n id="6"/>
			<n id="7"/>
			<n id="8"/>
			<n id="9"/>
			<n id="10"/>
			<n id="11"/>
			<n id="12"/>
			<n id="13"/>
			<n id="14"/>
			<n id="15"/>
			<n id="16"/>
			<n id="17"/>
			<n id="18"/>
			<n id="19"/>
			<n id="20"/>
<!-- ... 96 like lines cut -->
		</NodeSet>
		<NodeSet name="FixedDisplacement02">
			<n id="1"/>
			<n id="2"/>
			<n id="3"/>
			<n id="4"/>
			<n id="17"/>
			<n id="18"/>
			<n id="19"/>
			<n id="20"/>
			<n id="21"/>
			<n id="22"/>
			<n id="59"/>
			<n id="60"/>
			<n id="61"/>
			<n id="62"/>
			<n id="75"/>
			<n id="76"/>
			<n id="77"/>
			<n id="78"/>
			<n id="79"/>
			<n id="80"/>
		</NodeSet>
		<NodeSet name="PrescribedBC01">
			<n id="4"/>
			<n id="8"/>
			<n id="12"/>
			<n id="16"/>
			<n id="53"/>
			<n id="54"/>
			<n id="55"/>
			<n id="56"/>
			<n id="57"/>
			<n id="58"/>
			<n id="62"/>
			<n id="66"/>
			<n id="70"/>
			<n id="74"/>
			<n id="111"/>
			<n id="112"/>
			<n id="113"/>
			<n id="114"/>
			<n id="115"/>
			<n id="116"/>
		</NodeSet>
		<Surface name="RigidWall01">
			<quad4 id="1">22,28,86,80</quad4>
			<quad4 id="2">28,34,92,86</quad4>
			<quad4 id="3">34,40,98,92</quad4>
			<quad4 id="4">40,46,104,98</quad4>
			<quad4 id="5">46,52,110,104</quad4>
			<quad4 id="6">52,58,116,110</quad4>
		</Surface>
		<ElementSet name="unnamed_set01">
			<e id="15"/>
		</ElementSet>
	</Mesh>
	<MeshDomains>
		<SolidDomain name="Part1" mat="Material 1"/>
	</MeshDomains>
	<Boundary>
		<bc name="FixedDisplacement01" type="fix" node_set="FixedDisplacement01">
			<dofs>z</dofs>
		</bc>
		<bc name="FixedDisplacement02" type="fix" node_set="FixedDisplacement02">
			<dofs>x</dofs>
		</bc>
		<bc name="PrescribedBC01" type="prescribe" node_set="PrescribedBC01">
			<dof>y</dof>
			<scale lc="2">1</scale>
			<relative>0</relative>
		</bc>
	</Boundary>
	<Contact>
		<contact type="rigid_wall" name="RigidWall01" surface="RigidWall01">
			<laugon>0</laugon>
			<tolerance>0.01</tolerance>
			<penalty>150</penalty>
			<offset lc="3">1</offset>
			<plane>0,1,0,0</plane>
		</contact>
	</Contact>
	<LoadData>
		<load_controller id="1" type="loadcurve">
			<interpolate>STEP</interpolate>
			<points>
				<point>0,0</point>
				<point>0.6,0.1</point>
				<point>1,0.1</point>
			</points>
		</load_controller>
		<load_controller id="2" type="loadcurve">
			<interpolate>LINEAR</interpolate>
			<points>
				<point>0,0</point>
				<point>1,0</point>
			</points>
		</load_controller>
		<load_controller id="3" type="loadcurve">
			<interpolate>LINEAR</interpolate>
			<points>
				<point>0,0</point>
				<point>0.5,0.5</point>
				<point>1,0</point>
			</points>
		</load_controller>
	</LoadData>
	<Output>
		<plotfile type="febio">
			<var type="displacement"/>
			<var type="stress"/>
		</plotfile>
		<logfile>
			<element_data data="sy" elem_set="unnamed_set01"/>
		</logfile>
	</Output>
</febio_spec>
