<?xml version="1.0" encoding="ISO-8859-1"?>
<!--
A block with a prescribed z-displacement of -1.5 units from time t=0 to t=7.5 slides
with friction along a rigid inclined plane.
-->
<febio_spec version="3.0">
	<Module type="solid"/>
	<Control>
		<analysis>STATIC</analysis>
		<time_steps>75</time_steps>
		<step_size>0.1</step_size>
		<solver>
			<max_refs>15</max_refs>
			<max_ups>10</max_ups>
			<diverge_reform>1</diverge_reform>
			<reform_each_time_step>1</reform_each_time_step>
			<dtol>0.001</dtol>
			<etol>0.01</etol>
			<rtol>0</rtol>
			<lstol>0.9</lstol>
			<min_residual>1e-20</min_residual>
			<qnmethod>BFGS</qnmethod>
			<rhoi>-2</rhoi>
		</solver>
	</Control>
	<Globals>
		<Constants>
			<T>0</T>
			<R>0</R>
			<Fc>0</Fc>
		</Constants>
	</Globals>
	<Material>
		<material id="1" name="Material 1" type="neo-Hookean">
			<density>1</density>
			<E>1</E>
			<v>0</v>
		</material>
		<material id="2" name="Material 2" type="rigid body">
			<density>1</density>
		</material>
	</Material>
	<Mesh>
		<Nodes name="Object01">
			<node id="1">0,0,0</node>
			<node id="2">0,0,0.2</node>
			<node id="3">0,0,0.4</node>
			<node id="4">0,0,0.6</node>
			<node id="5">0,0,0.8</node>
			<node id="6">0,0,1</node>
			<node id="7">0,0,1.2</node>
			<node id="8">0,0,1.4</node>
			<node id="9">0,0,1.6</node>
			<node id="10">0,0,1.8</node>
			<node id="11">0,0,2</node>
			<node id="12">0,0.2,0</node>
			<node id="13">0,0.2,0.2</node>
			<node id="14">0,0.2,0.4</node>
			<node id="15">0,0.2,0.6</node>
			<node id="16">0,0.2,0.8</node>
			<node id="17">0,0.2,1</node>
			<node id="18">0,0.2,1.2</node>
			<node id="19">0,0.2,1.4</node>
			<node id="20">0,0.2,1.6</node>
<!-- ... 384 like lines cut -->
		</Nodes>
		<Elements type="hex8" name="Part13">
			<elem id="1">1,67,78,12,2,68,79,13</elem>
			<elem id="2">2,68,79,13,3,69,80,14</elem>
			<elem id="3">3,69,80,14,4,70,81,15</elem>
			<elem id="4">4,70,81,15,5,71,82,16</elem>
			<elem id="5">5,71,82,16,6,72,83,17</elem>
			<elem id="6">6,72,83,17,7,73,84,18</elem>
			<elem id="7">7,73,84,18,8,74,85,19</elem>
			<elem id="8">8,74,85,19,9,75,86,20</elem>
			<elem id="9">9,75,86,20,10,76,87,21</elem>
			<elem id="10">10,76,87,21,11,77,88,22</elem>
			<elem id="11">12,78,89,23,13,79,90,24</elem>
			<elem id="12">13,79,90,24,14,80,91,25</elem>
			<elem id="13">14,80,91,25,15,81,92,26</elem>
			<elem id="14">15,81,92,26,16,82,93,27</elem>
			<elem id="15">16,82,93,27,17,83,94,28</elem>
			<elem id="16">17,83,94,28,18,84,95,29</elem>
			<elem id="17">18,84,95,29,19,85,96,30</elem>
			<elem id="18">19,85,96,30,20,86,97,31</elem>
			<elem id="19">20,86,97,31,21,87,98,32</elem>
			<elem id="20">21,87,98,32,22,88,99,33</elem>
<!-- ... 230 like lines cut -->
		</Elements>
		<Elements type="hex8" name="Part14">
			<elem id="251">397,401,403,399,398,402,404,400</elem>
		</Elements>
		<NodeSet name="FixedDisplacement01">
			<n id="1"/>
			<n id="2"/>
			<n id="3"/>
			<n id="4"/>
			<n id="5"/>
			<n id="6"/>
			<n id="7"/>
			<n id="8"/>
			<n id="9"/>
			<n id="10"/>
			<n id="11"/>
			<n id="12"/>
			<n id="13"/>
			<n id="14"/>
			<n id="15"/>
			<n id="16"/>
			<n id="17"/>
			<n id="18"/>
			<n id="19"/>
			<n id="20"/>
<!-- ... 76 like lines cut -->
		</NodeSet>
		<NodeSet name="FixedDisplacement02">
			<n id="11"/>
			<n id="22"/>
			<n id="33"/>
			<n id="44"/>
			<n id="55"/>
			<n id="66"/>
			<n id="67"/>
			<n id="68"/>
			<n id="69"/>
			<n id="70"/>
			<n id="71"/>
			<n id="72"/>
			<n id="73"/>
			<n id="74"/>
			<n id="75"/>
			<n id="76"/>
			<n id="77"/>
			<n id="88"/>
			<n id="99"/>
			<n id="110"/>
<!-- ... 66 like lines cut -->
		</NodeSet>
		<NodeSet name="PrescribedBC52">
			<n id="11"/>
			<n id="22"/>
			<n id="33"/>
			<n id="44"/>
			<n id="55"/>
			<n id="66"/>
			<n id="77"/>
			<n id="88"/>
			<n id="99"/>
			<n id="110"/>
			<n id="121"/>
			<n id="132"/>
			<n id="143"/>
			<n id="154"/>
			<n id="165"/>
			<n id="176"/>
			<n id="187"/>
			<n id="198"/>
			<n id="209"/>
			<n id="220"/>
<!-- ... 16 like lines cut -->
		</NodeSet>
		<Surface name="PrimarySurface01">
			<quad4 id="1">331,342,343,332</quad4>
			<quad4 id="2">332,343,344,333</quad4>
			<quad4 id="3">333,344,345,334</quad4>
			<quad4 id="4">334,345,346,335</quad4>
			<quad4 id="5">335,346,347,336</quad4>
			<quad4 id="6">336,347,348,337</quad4>
			<quad4 id="7">337,348,349,338</quad4>
			<quad4 id="8">338,349,350,339</quad4>
			<quad4 id="9">339,350,351,340</quad4>
			<quad4 id="10">340,351,352,341</quad4>
			<quad4 id="11">342,353,354,343</quad4>
			<quad4 id="12">343,354,355,344</quad4>
			<quad4 id="13">344,355,356,345</quad4>
			<quad4 id="14">345,356,357,346</quad4>
			<quad4 id="15">346,357,358,347</quad4>
			<quad4 id="16">347,358,359,348</quad4>
			<quad4 id="17">348,359,360,349</quad4>
			<quad4 id="18">349,360,361,350</quad4>
			<quad4 id="19">350,361,362,351</quad4>
			<quad4 id="20">351,362,363,352</quad4>
<!-- ... 30 like lines cut -->
		</Surface>
		<Surface name="SecondarySurface01">
			<quad4 id="1">399,397,398,400</quad4>
		</Surface>
		<ElementSet name="unnamed_set01">
			<e id="205"/>
		</ElementSet>
		<SurfacePair name="SlidingInterface01">
			<primary>PrimarySurface01</primary>
			<secondary>SecondarySurface01</secondary>
		</SurfacePair>
	</Mesh>
	<MeshDomains>
		<SolidDomain name="Part13" mat="Material 1"/>
		<SolidDomain name="Part14" mat="Material 2"/>
	</MeshDomains>
	<Boundary>
		<bc name="FixedDisplacement01" type="fix" node_set="FixedDisplacement01">
			<dofs>x</dofs>
		</bc>
		<bc name="FixedDisplacement02" type="fix" node_set="FixedDisplacement02">
			<dofs>y</dofs>
		</bc>
		<bc name="PrescribedBC52" type="prescribe" node_set="PrescribedBC52">
			<dof>z</dof>
			<scale lc="1">1</scale>
			<relative>0</relative>
		</bc>
	</Boundary>
	<Rigid>
		<rigid_constraint name="RigidFixed24" type="fix">
			<rb>2</rb>
			<dofs>Rx,Ry,Rz,Ru,Rv,Rw</dofs>
		</rigid_constraint>
	</Rigid>
	<Contact>
		<contact type="sliding-node-on-facet" name="SlidingInterface01" surface_pair="SlidingInterface01">
			<laugon>1</laugon>
			<tolerance>0.1</tolerance>
			<penalty>10</penalty>
			<two_pass>0</two_pass>
			<auto_penalty>0</auto_penalty>
			<fric_coeff>0</fric_coeff>
			<fric_penalty>0</fric_penalty>
			<search_tol>0.01</search_tol>
			<minaug>3</minaug>
			<maxaug>10</maxaug>
			<gaptol>0</gaptol>
			<seg_up>0</seg_up>
			<update_penalty>0</update_penalty>
		</contact>
	</Contact>
	<LoadData>
		<load_controller id="1" type="loadcurve">
			<interpolate>LINEAR</interpolate>
			<points>
				<point>0,0</point>
				<point>7.5,-1.5</point>
			</points>
		</load_controller>
	</LoadData>
	<Output>
		<plotfile type="febio">
			<var type="displacement"/>
			<var type="stress"/>
		</plotfile>
		<logfile>
			<element_data data="Ex" elem_set="unnamed_set01"/>
		</logfile>
	</Output>
</febio_spec>
