<?xml version="1.0" encoding="ISO-8859-1"?>
<!--
A stiff section of a cylinder has a prescribed displacement in the z-direction 0f -0.35 units
from time t=0 to t=1 and then a displacement of 3 units in the x-direction from time t=1 to
t=4.  It presses down then slides with friction along a softer block.

This problem is similar to co07 but with friction.
-->
<febio_spec version="3.0">
	<Module type="solid"/>
	<Control>
		<analysis>STATIC</analysis>
		<time_steps>40</time_steps>
		<step_size>0.1</step_size>
		<solver>
			<max_refs>15</max_refs>
			<max_ups>10</max_ups>
			<diverge_reform>1</diverge_reform>
			<reform_each_time_step>1</reform_each_time_step>
			<dtol>0.01</dtol>
			<etol>0.01</etol>
			<rtol>1e+10</rtol>
			<lstol>0.9</lstol>
			<min_residual>1e-20</min_residual>
			<qnmethod>BFGS</qnmethod>
			<rhoi>-2</rhoi>
			<optimize_bw>1</optimize_bw>
		</solver>
		<time_stepper>
			<dtmin>0.0333333</dtmin>
			<dtmax lc="1"></dtmax>
			<max_retries>5</max_retries>
			<opt_iter>11</opt_iter>
		</time_stepper>
	</Control>
	<Globals>
		<Constants>
			<T>0</T>
			<R>0</R>
			<Fc>0</Fc>
		</Constants>
	</Globals>
	<Material>
		<material id="1" name="Material 1" type="neo-Hookean">
			<density>1</density>
			<E>10000</E>
			<v>0</v>
		</material>
		<material id="2" name="Material 2" type="neo-Hookean">
			<density>1</density>
			<E>1</E>
			<v>0.45</v>
		</material>
	</Material>
	<Mesh>
		<Nodes name="Object01">
			<node id="1">-2.5,-0.89999998,0</node>
			<node id="2">-2.5,-0.89999998,0.2</node>
			<node id="3">-2.5,-0.89999998,0.40000001</node>
			<node id="4">-2.5,-0.89999998,0.60000002</node>
			<node id="5">-2.5,-0.89999998,0.80000001</node>
			<node id="6">-2.5,-0.89999998,1</node>
			<node id="7">-2.5,-0.71999997,0</node>
			<node id="8">-2.5,-0.71999997,0.2</node>
			<node id="9">-2.5,-0.71999997,0.40000001</node>
			<node id="10">-2.5,-0.71999997,0.60000002</node>
			<node id="11">-2.5,-0.71999997,0.80000001</node>
			<node id="12">-2.5,-0.71999997,1</node>
			<node id="13">-2.5,-0.53999996,0</node>
			<node id="14">-2.5,-0.53999996,0.2</node>
			<node id="15">-2.5,-0.53999996,0.40000001</node>
			<node id="16">-2.5,-0.53999996,0.60000002</node>
			<node id="17">-2.5,-0.53999996,0.80000001</node>
			<node id="18">-2.5,-0.53999996,1</node>
			<node id="19">-2.5,-0.35999998,0</node>
			<node id="20">-2.5,-0.35999998,0.2</node>
<!-- ... 1960 like lines cut -->
		</Nodes>
		<Elements type="hex8" name="Part17">
			<elem id="1">1387,1388,1390,1389,1441,1442,1444,1443</elem>
			<elem id="2">1391,1392,1394,1393,1445,1446,1448,1447</elem>
			<elem id="3">1393,1394,1396,1395,1447,1448,1450,1449</elem>
			<elem id="4">1395,1396,1398,1397,1449,1450,1452,1451</elem>
			<elem id="5">1397,1398,1400,1399,1451,1452,1454,1453</elem>
			<elem id="6">1399,1400,1402,1401,1453,1454,1456,1455</elem>
			<elem id="7">1401,1402,1404,1403,1455,1456,1458,1457</elem>
			<elem id="8">1403,1404,1406,1405,1457,1458,1460,1459</elem>
			<elem id="9">1405,1406,1408,1407,1459,1460,1462,1461</elem>
			<elem id="10">1407,1408,1410,1409,1461,1462,1464,1463</elem>
			<elem id="11">1409,1410,1412,1411,1463,1464,1466,1465</elem>
			<elem id="12">1411,1412,1414,1413,1465,1466,1468,1467</elem>
			<elem id="13">1413,1414,1416,1415,1467,1468,1470,1469</elem>
			<elem id="14">1415,1416,1418,1417,1469,1470,1472,1471</elem>
			<elem id="15">1417,1418,1420,1419,1471,1472,1474,1473</elem>
			<elem id="16">1419,1420,1422,1421,1473,1474,1476,1475</elem>
			<elem id="17">1421,1422,1424,1423,1475,1476,1478,1477</elem>
			<elem id="18">1423,1424,1426,1425,1477,1478,1480,1479</elem>
			<elem id="19">1425,1426,1428,1427,1479,1480,1482,1481</elem>
			<elem id="20">1427,1428,1430,1429,1481,1482,1484,1483</elem>
<!-- ... 240 like lines cut -->
		</Elements>
		<Elements type="hex8" name="Part18">
			<elem id="261">1,67,73,7,2,68,74,8</elem>
			<elem id="262">2,68,74,8,3,69,75,9</elem>
			<elem id="263">3,69,75,9,4,70,76,10</elem>
			<elem id="264">4,70,76,10,5,71,77,11</elem>
			<elem id="265">5,71,77,11,6,72,78,12</elem>
			<elem id="266">7,73,79,13,8,74,80,14</elem>
			<elem id="267">8,74,80,14,9,75,81,15</elem>
			<elem id="268">9,75,81,15,10,76,82,16</elem>
			<elem id="269">10,76,82,16,11,77,83,17</elem>
			<elem id="270">11,77,83,17,12,78,84,18</elem>
			<elem id="271">13,79,85,19,14,80,86,20</elem>
			<elem id="272">14,80,86,20,15,81,87,21</elem>
			<elem id="273">15,81,87,21,16,82,88,22</elem>
			<elem id="274">16,82,88,22,17,83,89,23</elem>
			<elem id="275">17,83,89,23,18,84,90,24</elem>
			<elem id="276">19,85,91,25,20,86,92,26</elem>
			<elem id="277">20,86,92,26,21,87,93,27</elem>
			<elem id="278">21,87,93,27,22,88,94,28</elem>
			<elem id="279">22,88,94,28,23,89,95,29</elem>
			<elem id="280">23,89,95,29,24,90,96,30</elem>
<!-- ... 980 like lines cut -->
		</Elements>
		<NodeSet name="FixedDisplacement01">
			<n id="1"/>
			<n id="7"/>
			<n id="13"/>
			<n id="19"/>
			<n id="25"/>
			<n id="31"/>
			<n id="37"/>
			<n id="43"/>
			<n id="49"/>
			<n id="55"/>
			<n id="61"/>
			<n id="67"/>
			<n id="73"/>
			<n id="79"/>
			<n id="85"/>
			<n id="91"/>
			<n id="97"/>
			<n id="103"/>
			<n id="109"/>
			<n id="115"/>
<!-- ... 211 like lines cut -->
		</NodeSet>
		<NodeSet name="FixedDisplacement02">
			<n id="1"/>
			<n id="6"/>
			<n id="7"/>
			<n id="12"/>
			<n id="13"/>
			<n id="18"/>
			<n id="19"/>
			<n id="24"/>
			<n id="25"/>
			<n id="30"/>
			<n id="31"/>
			<n id="36"/>
			<n id="37"/>
			<n id="42"/>
			<n id="43"/>
			<n id="48"/>
			<n id="49"/>
			<n id="54"/>
			<n id="55"/>
			<n id="60"/>
<!-- ... 1036 like lines cut -->
		</NodeSet>
		<NodeSet name="FixedDisplacement03">
			<n id="1"/>
			<n id="6"/>
			<n id="7"/>
			<n id="12"/>
			<n id="13"/>
			<n id="18"/>
			<n id="19"/>
			<n id="24"/>
			<n id="25"/>
			<n id="30"/>
			<n id="31"/>
			<n id="36"/>
			<n id="37"/>
			<n id="42"/>
			<n id="43"/>
			<n id="48"/>
			<n id="49"/>
			<n id="54"/>
			<n id="55"/>
			<n id="60"/>
<!-- ... 442 like lines cut -->
		</NodeSet>
		<NodeSet name="PrescribedBC54">
			<n id="1389"/>
			<n id="1390"/>
			<n id="1391"/>
			<n id="1392"/>
			<n id="1443"/>
			<n id="1444"/>
			<n id="1445"/>
			<n id="1446"/>
			<n id="1497"/>
			<n id="1498"/>
			<n id="1499"/>
			<n id="1500"/>
			<n id="1551"/>
			<n id="1552"/>
			<n id="1553"/>
			<n id="1554"/>
			<n id="1605"/>
			<n id="1606"/>
			<n id="1607"/>
			<n id="1608"/>
<!-- ... 24 like lines cut -->
		</NodeSet>
		<NodeSet name="PrescribedBC55">
			<n id="1389"/>
			<n id="1390"/>
			<n id="1391"/>
			<n id="1392"/>
			<n id="1443"/>
			<n id="1444"/>
			<n id="1445"/>
			<n id="1446"/>
			<n id="1497"/>
			<n id="1498"/>
			<n id="1499"/>
			<n id="1500"/>
			<n id="1551"/>
			<n id="1552"/>
			<n id="1553"/>
			<n id="1554"/>
			<n id="1605"/>
			<n id="1606"/>
			<n id="1607"/>
			<n id="1608"/>
<!-- ... 24 like lines cut -->
		</NodeSet>
		<Surface name="PrimarySurface01">
			<quad4 id="1">1388,1390,1444,1442</quad4>
			<quad4 id="2">1392,1394,1448,1446</quad4>
			<quad4 id="3">1394,1396,1450,1448</quad4>
			<quad4 id="4">1396,1398,1452,1450</quad4>
			<quad4 id="5">1398,1400,1454,1452</quad4>
			<quad4 id="6">1400,1402,1456,1454</quad4>
			<quad4 id="7">1402,1404,1458,1456</quad4>
			<quad4 id="8">1404,1406,1460,1458</quad4>
			<quad4 id="9">1406,1408,1462,1460</quad4>
			<quad4 id="10">1408,1410,1464,1462</quad4>
			<quad4 id="11">1410,1412,1466,1464</quad4>
			<quad4 id="12">1412,1414,1468,1466</quad4>
			<quad4 id="13">1414,1416,1470,1468</quad4>
			<quad4 id="14">1416,1418,1472,1470</quad4>
			<quad4 id="15">1418,1420,1474,1472</quad4>
			<quad4 id="16">1420,1422,1476,1474</quad4>
			<quad4 id="17">1422,1424,1478,1476</quad4>
			<quad4 id="18">1424,1426,1480,1478</quad4>
			<quad4 id="19">1426,1428,1482,1480</quad4>
			<quad4 id="20">1428,1430,1484,1482</quad4>
<!-- ... 240 like lines cut -->
		</Surface>
		<Surface name="SecondarySurface01">
			<quad4 id="1">6,72,78,12</quad4>
			<quad4 id="2">12,78,84,18</quad4>
			<quad4 id="3">18,84,90,24</quad4>
			<quad4 id="4">24,90,96,30</quad4>
			<quad4 id="5">30,96,102,36</quad4>
			<quad4 id="6">36,102,108,42</quad4>
			<quad4 id="7">42,108,114,48</quad4>
			<quad4 id="8">48,114,120,54</quad4>
			<quad4 id="9">54,120,126,60</quad4>
			<quad4 id="10">60,126,132,66</quad4>
			<quad4 id="11">72,138,144,78</quad4>
			<quad4 id="12">78,144,150,84</quad4>
			<quad4 id="13">84,150,156,90</quad4>
			<quad4 id="14">90,156,162,96</quad4>
			<quad4 id="15">96,162,168,102</quad4>
			<quad4 id="16">102,168,174,108</quad4>
			<quad4 id="17">108,174,180,114</quad4>
			<quad4 id="18">114,180,186,120</quad4>
			<quad4 id="19">120,186,192,126</quad4>
			<quad4 id="20">126,192,198,132</quad4>
<!-- ... 180 like lines cut -->
		</Surface>
		<ElementSet name="unnamed_set01">
			<e id="119"/>
		</ElementSet>
		<SurfacePair name="SlidingInterface01">
			<primary>PrimarySurface01</primary>
			<secondary>SecondarySurface01</secondary>
		</SurfacePair>
	</Mesh>
	<MeshDomains>
		<SolidDomain name="Part17" mat="Material 1"/>
		<SolidDomain name="Part18" mat="Material 2"/>
	</MeshDomains>
	<Boundary>
		<bc name="FixedDisplacement01" type="fix" node_set="FixedDisplacement01">
			<dofs>z</dofs>
		</bc>
		<bc name="FixedDisplacement02" type="fix" node_set="FixedDisplacement02">
			<dofs>y</dofs>
		</bc>
		<bc name="FixedDisplacement03" type="fix" node_set="FixedDisplacement03">
			<dofs>x</dofs>
		</bc>
		<bc name="PrescribedBC54" type="prescribe" node_set="PrescribedBC54">
			<dof>x</dof>
			<scale lc="2">1</scale>
			<relative>0</relative>
		</bc>
		<bc name="PrescribedBC55" type="prescribe" node_set="PrescribedBC55">
			<dof>z</dof>
			<scale lc="3">1</scale>
			<relative>0</relative>
		</bc>
	</Boundary>
	<Contact>
		<contact type="sliding-node-on-facet" name="SlidingInterface01" surface_pair="SlidingInterface01">
			<laugon>1</laugon>
			<tolerance>0.01</tolerance>
			<penalty>5</penalty>
			<two_pass>1</two_pass>
			<auto_penalty>0</auto_penalty>
			<fric_coeff>0.5</fric_coeff>
			<fric_penalty>1</fric_penalty>
			<search_tol>0.01</search_tol>
			<minaug>0</minaug>
			<maxaug>10</maxaug>
			<gaptol>0</gaptol>
			<seg_up>0</seg_up>
			<update_penalty>0</update_penalty>
		</contact>
	</Contact>
	<LoadData>
		<load_controller id="1" type="loadcurve">
			<interpolate>STEP</interpolate>
			<points>
				<point>0,0</point>
				<point>1,0.1</point>
				<point>4,0.1</point>
			</points>
		</load_controller>
		<load_controller id="2" type="loadcurve">
			<interpolate>LINEAR</interpolate>
			<points>
				<point>0,0</point>
				<point>1,0</point>
				<point>4,3</point>
			</points>
		</load_controller>
		<load_controller id="3" type="loadcurve">
			<interpolate>LINEAR</interpolate>
			<points>
				<point>0,0</point>
				<point>1,-0.6</point>
				<point>4,-0.6</point>
			</points>
		</load_controller>
	</LoadData>
	<Output>
		<plotfile type="febio">
			<var type="displacement"/>
			<var type="stress"/>
		</plotfile>
		<logfile>
			<element_data data="sz" elem_set="unnamed_set01"/>
		</logfile>
	</Output>
</febio_spec>
