<?xml version="1.0" encoding="ISO-8859-1"?>
<febio_spec version="3.0">
	<Module type="solid"/>
	<Control>
		<analysis>STATIC</analysis>
		<time_steps>10</time_steps>
		<step_size>0.1</step_size>
		<solver>
			<max_refs>15</max_refs>
			<max_ups>10</max_ups>
			<diverge_reform>1</diverge_reform>
			<reform_each_time_step>1</reform_each_time_step>
			<dtol>0.001</dtol>
			<etol>0.01</etol>
			<rtol>0</rtol>
			<lstol>0.9</lstol>
			<min_residual>1e-20</min_residual>
			<qnmethod>BFGS</qnmethod>
			<rhoi>-2</rhoi>
		</solver>
	</Control>
	<Globals>
		<Constants>
			<T>0</T>
			<R>0</R>
			<Fc>0</Fc>
		</Constants>
	</Globals>
	<Material>
		<material id="1" name="billet" type="neo-Hookean">
			<density>1</density>
			<E>1</E>
			<v>0.4</v>
		</material>
		<material id="2" name="top" type="rigid body">
			<density>1</density>
		</material>
		<material id="3" name="bottom" type="rigid body">
			<density>1</density>
		</material>
	</Material>
	<Mesh>
		<Nodes name="Object01">
			<node id="1">-0.5,-0.5,-0.05</node>
			<node id="2">-0.45,-0.5,-0.05</node>
			<node id="3">-0.4,-0.5,-0.05</node>
			<node id="4">-0.35,-0.5,-0.05</node>
			<node id="5">-0.3,-0.5,-0.05</node>
			<node id="6">-0.25,-0.5,-0.05</node>
			<node id="7">-0.2,-0.5,-0.05</node>
			<node id="8">-0.15,-0.5,-0.05</node>
			<node id="9">-0.1,-0.5,-0.05</node>
			<node id="10">-0.05,-0.5,-0.05</node>
			<node id="11">0,-0.5,-0.05</node>
			<node id="12">0.05,-0.5,-0.05</node>
			<node id="13">0.1,-0.5,-0.05</node>
			<node id="14">0.15,-0.5,-0.05</node>
			<node id="15">0.2,-0.5,-0.05</node>
			<node id="16">0.25,-0.5,-0.05</node>
			<node id="17">0.3,-0.5,-0.05</node>
			<node id="18">0.35,-0.5,-0.05</node>
			<node id="19">0.4,-0.5,-0.05</node>
			<node id="20">0.45,-0.5,-0.05</node>
<!-- ... 2478 like lines cut -->
		</Nodes>
		<Elements type="hex8" name="Part19">
			<elem id="1">1,2,23,22,442,443,464,463</elem>
			<elem id="2">2,3,24,23,443,444,465,464</elem>
			<elem id="3">3,4,25,24,444,445,466,465</elem>
			<elem id="4">4,5,26,25,445,446,467,466</elem>
			<elem id="5">5,6,27,26,446,447,468,467</elem>
			<elem id="6">6,7,28,27,447,448,469,468</elem>
			<elem id="7">7,8,29,28,448,449,470,469</elem>
			<elem id="8">8,9,30,29,449,450,471,470</elem>
			<elem id="9">9,10,31,30,450,451,472,471</elem>
			<elem id="10">10,11,32,31,451,452,473,472</elem>
			<elem id="11">11,12,33,32,452,453,474,473</elem>
			<elem id="12">12,13,34,33,453,454,475,474</elem>
			<elem id="13">13,14,35,34,454,455,476,475</elem>
			<elem id="14">14,15,36,35,455,456,477,476</elem>
			<elem id="15">15,16,37,36,456,457,478,477</elem>
			<elem id="16">16,17,38,37,457,458,479,478</elem>
			<elem id="17">17,18,39,38,458,459,480,479</elem>
			<elem id="18">18,19,40,39,459,460,481,480</elem>
			<elem id="19">19,20,41,40,460,461,482,481</elem>
			<elem id="20">20,21,42,41,461,462,483,482</elem>
<!-- ... 1180 like lines cut -->
		</Elements>
		<Elements type="hex8" name="Part20">
			<elem id="1201">2483,2487,2489,2485,2484,2488,2490,2486</elem>
		</Elements>
		<Elements type="hex8" name="Part21">
			<elem id="1202">2491,2495,2497,2493,2492,2496,2498,2494</elem>
		</Elements>
		<NodeSet name="FixedDisplacement01">
			<n id="1"/>
			<n id="2"/>
			<n id="3"/>
			<n id="4"/>
			<n id="5"/>
			<n id="6"/>
			<n id="7"/>
			<n id="8"/>
			<n id="9"/>
			<n id="10"/>
			<n id="11"/>
			<n id="12"/>
			<n id="13"/>
			<n id="14"/>
			<n id="15"/>
			<n id="16"/>
			<n id="17"/>
			<n id="18"/>
			<n id="19"/>
			<n id="20"/>
<!-- ... 2462 like lines cut -->
		</NodeSet>
		<NodeSet name="FixedDisplacement02">
			<n id="2323"/>
			<n id="2324"/>
			<n id="2325"/>
			<n id="2326"/>
			<n id="2327"/>
			<n id="2328"/>
			<n id="2329"/>
			<n id="2330"/>
			<n id="2331"/>
			<n id="2332"/>
			<n id="2333"/>
			<n id="2334"/>
			<n id="2335"/>
			<n id="2336"/>
			<n id="2337"/>
			<n id="2338"/>
			<n id="2339"/>
			<n id="2340"/>
			<n id="2341"/>
			<n id="2342"/>
<!-- ... 64 like lines cut -->
		</NodeSet>
		<Surface name="PrimarySurface01">
			<quad4 id="1">2364,2362,2442,2444</quad4>
			<quad4 id="2">2363,2365,2445,2443</quad4>
			<quad4 id="3">2366,2364,2444,2446</quad4>
			<quad4 id="4">2365,2367,2447,2445</quad4>
			<quad4 id="5">2368,2366,2446,2448</quad4>
			<quad4 id="6">2367,2369,2449,2447</quad4>
			<quad4 id="7">2370,2368,2448,2450</quad4>
			<quad4 id="8">2369,2371,2451,2449</quad4>
			<quad4 id="9">2372,2370,2450,2452</quad4>
			<quad4 id="10">2371,2373,2453,2451</quad4>
			<quad4 id="11">2374,2372,2452,2454</quad4>
			<quad4 id="12">2373,2375,2455,2453</quad4>
			<quad4 id="13">2376,2374,2454,2456</quad4>
			<quad4 id="14">2375,2377,2457,2455</quad4>
			<quad4 id="15">2378,2376,2456,2458</quad4>
			<quad4 id="16">2377,2379,2459,2457</quad4>
			<quad4 id="17">2380,2378,2458,2460</quad4>
			<quad4 id="18">2379,2381,2461,2459</quad4>
			<quad4 id="19">2382,2380,2460,2462</quad4>
			<quad4 id="20">2383,2382,2462,2463</quad4>
<!-- ... 20 like lines cut -->
		</Surface>
		<Surface name="SecondarySurface01">
			<quad4 id="1">2483,2487,2488,2484</quad4>
		</Surface>
		<Surface name="PrimarySurface02">
			<quad4 id="1">2344,2323,2403,2424</quad4>
			<quad4 id="2">2323,2324,2404,2403</quad4>
			<quad4 id="3">2324,2325,2405,2404</quad4>
			<quad4 id="4">2325,2326,2406,2405</quad4>
			<quad4 id="5">2326,2327,2407,2406</quad4>
			<quad4 id="6">2327,2328,2408,2407</quad4>
			<quad4 id="7">2328,2329,2409,2408</quad4>
			<quad4 id="8">2329,2330,2410,2409</quad4>
			<quad4 id="9">2330,2331,2411,2410</quad4>
			<quad4 id="10">2331,2332,2412,2411</quad4>
			<quad4 id="11">2332,2333,2413,2412</quad4>
			<quad4 id="12">2333,2334,2414,2413</quad4>
			<quad4 id="13">2334,2335,2415,2414</quad4>
			<quad4 id="14">2335,2336,2416,2415</quad4>
			<quad4 id="15">2336,2337,2417,2416</quad4>
			<quad4 id="16">2337,2338,2418,2417</quad4>
			<quad4 id="17">2338,2339,2419,2418</quad4>
			<quad4 id="18">2339,2340,2420,2419</quad4>
			<quad4 id="19">2340,2341,2421,2420</quad4>
			<quad4 id="20">2341,2342,2422,2421</quad4>
<!-- ... 20 like lines cut -->
		</Surface>
		<Surface name="SecondarySurface02">
			<quad4 id="1">2497,2493,2494,2498</quad4>
		</Surface>
		<ElementSet name="unnamed_set01">
			<e id="260"/>
		</ElementSet>
		<SurfacePair name="SlidingInterface01">
			<primary>PrimarySurface01</primary>
			<secondary>SecondarySurface01</secondary>
		</SurfacePair>
		<SurfacePair name="SlidingInterface02">
			<primary>PrimarySurface02</primary>
			<secondary>SecondarySurface02</secondary>
		</SurfacePair>
	</Mesh>
	<MeshDomains>
		<SolidDomain name="Part19" mat="billet"/>
		<SolidDomain name="Part20" mat="top"/>
		<SolidDomain name="Part21" mat="bottom"/>
	</MeshDomains>
	<Boundary>
		<bc name="FixedDisplacement01" type="fix" node_set="FixedDisplacement01">
			<dofs>z</dofs>
		</bc>
		<bc name="FixedDisplacement02" type="fix" node_set="FixedDisplacement02">
			<dofs>x</dofs>
		</bc>
	</Boundary>
	<Rigid>
		<rigid_constraint name="RigidFixed25" type="fix">
			<rb>2</rb>
			<dofs>Rx,Rz,Ru,Rv,Rw</dofs>
		</rigid_constraint>
		<rigid_constraint name="RigidDisplacement12" type="prescribe">
			<rb>2</rb>
			<dof>Ry</dof>
			<value lc="1">1</value>
		</rigid_constraint>
		<rigid_constraint name="RigidFixed26" type="fix">
			<rb>3</rb>
			<dofs>Rx,Rz,Ru,Rv,Rw</dofs>
		</rigid_constraint>
		<rigid_constraint name="RigidDisplacement13" type="prescribe">
			<rb>3</rb>
			<dof>Ry</dof>
			<value lc="2">1</value>
		</rigid_constraint>
	</Rigid>
	<Contact>
		<contact type="sliding-node-on-facet" name="SlidingInterface01" surface_pair="SlidingInterface01">
			<laugon>1</laugon>
			<tolerance>0.01</tolerance>
			<penalty>15</penalty>
			<two_pass>0</two_pass>
			<auto_penalty>0</auto_penalty>
			<fric_coeff>0</fric_coeff>
			<fric_penalty>0</fric_penalty>
			<search_tol>0.01</search_tol>
			<minaug>0</minaug>
			<maxaug>10</maxaug>
			<gaptol>0</gaptol>
			<seg_up>0</seg_up>
			<update_penalty>0</update_penalty>
		</contact>
		<contact type="sliding-node-on-facet" name="SlidingInterface02" surface_pair="SlidingInterface02">
			<laugon>1</laugon>
			<tolerance>0.01</tolerance>
			<penalty>15</penalty>
			<two_pass>0</two_pass>
			<auto_penalty>0</auto_penalty>
			<fric_coeff>0</fric_coeff>
			<fric_penalty>0</fric_penalty>
			<search_tol>0.01</search_tol>
			<minaug>0</minaug>
			<maxaug>10</maxaug>
			<gaptol>0</gaptol>
			<seg_up>0</seg_up>
			<update_penalty>0</update_penalty>
		</contact>
	</Contact>
	<LoadData>
		<load_controller id="1" type="loadcurve">
			<interpolate>LINEAR</interpolate>
			<points>
				<point>0,0</point>
				<point>1,-0.6</point>
			</points>
		</load_controller>
		<load_controller id="2" type="loadcurve">
			<interpolate>LINEAR</interpolate>
			<points>
				<point>0,0</point>
				<point>1,0.6</point>
			</points>
		</load_controller>
	</LoadData>
	<Output>
		<plotfile type="febio">
			<var type="displacement"/>
			<var type="stress"/>
		</plotfile>
		<logfile>
			<element_data data="sz" elem_set="unnamed_set01"/>
		</logfile>
	</Output>
</febio_spec>
