<?xml version="1.0" encoding="ISO-8859-1"?>
<febio_spec version="3.0">
	<Module type="solid"/>
	<Control>
		<analysis>STATIC</analysis>
		<time_steps>24</time_steps>
		<step_size>0.1</step_size>
		<solver>
			<max_refs>100</max_refs>
			<max_ups>0</max_ups>
			<diverge_reform>1</diverge_reform>
			<reform_each_time_step>1</reform_each_time_step>
			<dtol>0.001</dtol>
			<etol>0.01</etol>
			<rtol>0</rtol>
			<lstol>999</lstol>
			<min_residual>1e-20</min_residual>
			<qnmethod>BFGS</qnmethod>
			<rhoi>-2</rhoi>
		</solver>
		<time_stepper>
			<dtmin>0.1</dtmin>
			<dtmax lc="1"></dtmax>
			<max_retries>5</max_retries>
			<opt_iter>24</opt_iter>
		</time_stepper>
	</Control>
	<Globals>
		<Constants>
			<T>0</T>
			<R>0</R>
			<Fc>0</Fc>
		</Constants>
	</Globals>
	<Material>
		<material id="1" name="Material 1" type="Mooney-Rivlin">
			<density>1</density>
			<c1>1</c1>
			<c2>0</c2>
			<k>100</k>
		</material>
		<material id="2" name="Material 2" type="rigid body">
			<density>1</density>
		</material>
	</Material>
	<Mesh>
		<Nodes name="Object01">
			<node id="1">-1.2,-0.2,0</node>
			<node id="2">-1.2,-0.2,0.1</node>
			<node id="3">-1.2,-0.1,0</node>
			<node id="4">-1.2,-0.1,0.1</node>
			<node id="5">-1.2,0,0</node>
			<node id="6">-1.2,0,0.1</node>
			<node id="7">-1.2,0.1,0</node>
			<node id="8">-1.2,0.1,0.1</node>
			<node id="9">-1.2,0.2,0</node>
			<node id="10">-1.2,0.2,0.1</node>
			<node id="11">-1.2,0.3,0</node>
			<node id="12">-1.2,0.3,0.1</node>
			<node id="13">-1.2,0.4,0</node>
			<node id="14">-1.2,0.4,0.1</node>
			<node id="15">-1.2,0.5,0</node>
			<node id="16">-1.2,0.5,0.1</node>
			<node id="17">-1.2,0.6,0</node>
			<node id="18">-1.2,0.6,0.1</node>
			<node id="19">-1.2,0.7,0</node>
			<node id="20">-1.2,0.7,0.1</node>
<!-- ... 238 like lines cut -->
		</Nodes>
		<Elements type="hex8" name="Part23">
			<elem id="1">1,23,25,3,2,24,26,4</elem>
			<elem id="2">3,25,27,5,4,26,28,6</elem>
			<elem id="3">5,27,29,7,6,28,30,8</elem>
			<elem id="4">7,29,31,9,8,30,32,10</elem>
			<elem id="5">9,31,33,11,10,32,34,12</elem>
			<elem id="6">11,33,35,13,12,34,36,14</elem>
			<elem id="7">13,35,37,15,14,36,38,16</elem>
			<elem id="8">15,37,39,17,16,38,40,18</elem>
			<elem id="9">17,39,41,19,18,40,42,20</elem>
			<elem id="10">19,41,43,21,20,42,44,22</elem>
			<elem id="11">23,45,47,25,24,46,48,26</elem>
			<elem id="12">25,47,49,27,26,48,50,28</elem>
			<elem id="13">27,49,51,29,28,50,52,30</elem>
			<elem id="14">29,51,53,31,30,52,54,32</elem>
			<elem id="15">31,53,55,33,32,54,56,34</elem>
			<elem id="16">33,55,57,35,34,56,58,36</elem>
			<elem id="17">35,57,59,37,36,58,60,38</elem>
			<elem id="18">37,59,61,39,38,60,62,40</elem>
			<elem id="19">39,61,63,41,40,62,64,42</elem>
			<elem id="20">41,63,65,43,42,64,66,44</elem>
<!-- ... 80 like lines cut -->
		</Elements>
		<Elements type="hex8" name="Part24">
			<elem id="101">243,247,249,245,244,248,250,246</elem>
			<elem id="102">247,251,253,249,248,252,254,250</elem>
			<elem id="103">251,255,257,253,252,256,258,254</elem>
		</Elements>
		<NodeSet name="FixedNodeset01">
			<n id="21"/>
			<n id="22"/>
			<n id="43"/>
			<n id="44"/>
			<n id="65"/>
			<n id="66"/>
			<n id="87"/>
			<n id="88"/>
			<n id="109"/>
			<n id="110"/>
			<n id="131"/>
			<n id="132"/>
			<n id="153"/>
			<n id="154"/>
			<n id="175"/>
			<n id="176"/>
			<n id="197"/>
			<n id="198"/>
			<n id="219"/>
			<n id="220"/>
			<n id="241"/>
			<n id="242"/>
		</NodeSet>
		<NodeSet name="FixedDisplacement02">
			<n id="1"/>
			<n id="2"/>
			<n id="3"/>
			<n id="4"/>
			<n id="5"/>
			<n id="6"/>
			<n id="7"/>
			<n id="8"/>
			<n id="9"/>
			<n id="10"/>
			<n id="11"/>
			<n id="12"/>
			<n id="13"/>
			<n id="14"/>
			<n id="15"/>
			<n id="16"/>
			<n id="17"/>
			<n id="18"/>
			<n id="19"/>
			<n id="20"/>
<!-- ... 464 like lines cut -->
		</NodeSet>
		<NodeSet name="FixedDisplacement03">
			<n id="243"/>
			<n id="244"/>
			<n id="245"/>
			<n id="246"/>
			<n id="247"/>
			<n id="248"/>
			<n id="249"/>
			<n id="250"/>
			<n id="251"/>
			<n id="252"/>
			<n id="253"/>
			<n id="254"/>
			<n id="255"/>
			<n id="256"/>
			<n id="257"/>
			<n id="258"/>
			<n id="243"/>
			<n id="244"/>
			<n id="245"/>
			<n id="246"/>
<!-- ... 12 like lines cut -->
		</NodeSet>
		<NodeSet name="PrescribedBC01">
			<n id="21"/>
			<n id="22"/>
			<n id="43"/>
			<n id="44"/>
			<n id="65"/>
			<n id="66"/>
			<n id="87"/>
			<n id="88"/>
			<n id="109"/>
			<n id="110"/>
			<n id="131"/>
			<n id="132"/>
			<n id="153"/>
			<n id="154"/>
			<n id="175"/>
			<n id="176"/>
			<n id="197"/>
			<n id="198"/>
			<n id="219"/>
			<n id="220"/>
			<n id="241"/>
			<n id="242"/>
		</NodeSet>
		<Surface name="PrimarySurface01">
			<quad4 id="1">1,23,24,2</quad4>
			<quad4 id="2">23,45,46,24</quad4>
			<quad4 id="3">45,67,68,46</quad4>
			<quad4 id="4">67,89,90,68</quad4>
			<quad4 id="5">89,111,112,90</quad4>
			<quad4 id="6">111,133,134,112</quad4>
			<quad4 id="7">133,155,156,134</quad4>
			<quad4 id="8">155,177,178,156</quad4>
			<quad4 id="9">177,199,200,178</quad4>
			<quad4 id="10">199,221,222,200</quad4>
		</Surface>
		<Surface name="SecondarySurface01">
			<quad4 id="1">257,253,254,258</quad4>
			<quad4 id="2">253,249,250,254</quad4>
			<quad4 id="3">249,245,246,250</quad4>
		</Surface>
		<ElementSet name="unnamed_set01">
			<e id="33"/>
		</ElementSet>
		<SurfacePair name="SlidingInterface01">
			<primary>PrimarySurface01</primary>
			<secondary>SecondarySurface01</secondary>
		</SurfacePair>
	</Mesh>
	<MeshDomains>
		<SolidDomain name="Part23" mat="Material 1"/>
		<SolidDomain name="Part24" mat="Material 2"/>
	</MeshDomains>
	<Boundary>
		<bc name="FixedDisplacement01" type="fix" node_set="FixedNodeset01">
			<dofs>y</dofs>
		</bc>
		<bc name="FixedDisplacement02" type="fix" node_set="FixedDisplacement02">
			<dofs>z</dofs>
		</bc>
		<bc name="FixedDisplacement03" type="fix" node_set="FixedDisplacement03">
			<dofs>z</dofs>
		</bc>
		<bc name="PrescribedBC01" type="prescribe" node_set="PrescribedBC01">
			<dof>x</dof>
			<scale lc="2">1</scale>
			<relative>0</relative>
		</bc>
	</Boundary>
	<Rigid>
		<rigid_constraint name="RigidFixed45" type="fix">
			<rb>2</rb>
			<dofs>Rx,Ry,Rz,Ru,Rv,Rw</dofs>
		</rigid_constraint>
	</Rigid>
	<Contact>
		<contact type="sliding-node-on-facet" name="SlidingInterface01" surface_pair="SlidingInterface01">
			<laugon>1</laugon>
			<tolerance>0.005</tolerance>
			<penalty>1</penalty>
			<two_pass>0</two_pass>
			<auto_penalty>1</auto_penalty>
			<fric_coeff>0</fric_coeff>
			<fric_penalty>0</fric_penalty>
			<search_tol>0.01</search_tol>
			<minaug>0</minaug>
			<maxaug>10</maxaug>
			<gaptol>0</gaptol>
			<seg_up>0</seg_up>
			<update_penalty>0</update_penalty>
		</contact>
	</Contact>
	<LoadData>
		<load_controller id="1" type="loadcurve">
			<interpolate>STEP</interpolate>
			<points>
				<point>0,0</point>
				<point>1.4,0.1</point>
				<point>2.4,0.1</point>
			</points>
		</load_controller>
		<load_controller id="2" type="loadcurve">
			<interpolate>LINEAR</interpolate>
			<points>
				<point>0,0</point>
				<point>2.4,2.4</point>
			</points>
		</load_controller>
	</LoadData>
	<Output>
		<plotfile type="febio">
			<var type="displacement"/>
			<var type="stress"/>
		</plotfile>
		<logfile>
			<element_data data="Ex" elem_set="unnamed_set01"/>
		</logfile>
	</Output>
</febio_spec>
