<?xml version="1.0" encoding="ISO-8859-1"?>
<!--
Problem Description:
	Two blocks undergo confined compression with non-conforming mesh contact
	between them.  The bottom block is defined with a variable thickness mesh.
Main Features:
	Sliding2 contact
Secondary Features:
	
Materials:
	Holmes-Mow
Degrees of Freedom: 600
Results:
	Solver: Pardiso
	Steps Completed: 20
	Equilibrium Iterations: 40
	Right Hand Evaluations: 60
	Siffness Reformations: 40
	Other:
		The contact surface has a y-displacement of -0.255 at time t=5000
 
Comments:
	
-->
<febio_spec version="3.0">
	<Module type="solid"/>
	<Control>
		<analysis>STATIC</analysis>
		<time_steps>20</time_steps>
		<step_size>250</step_size>
		<solver>
			<max_refs>99</max_refs>
			<max_ups>0</max_ups>
			<diverge_reform>1</diverge_reform>
			<reform_each_time_step>1</reform_each_time_step>
			<dtol>0.001</dtol>
			<etol>0.01</etol>
			<rtol>0</rtol>
			<lstol>0.9</lstol>
			<min_residual>1e-20</min_residual>
			<qnmethod>BFGS</qnmethod>
			<rhoi>-2</rhoi>
			<symmetric_stiffness>0</symmetric_stiffness>
		</solver>
	</Control>
	<Globals>
		<Constants>
			<T>0</T>
			<R>0</R>
			<Fc>0</Fc>
		</Constants>
	</Globals>
	<Material>
		<material id="1" name="Material 1" type="Holmes-Mow">
			<density>1</density>
			<E>0.4</E>
			<v>0</v>
			<beta>0.35</beta>
		</material>
	</Material>
	<Mesh>
		<Nodes name="Object01">
			<node id="1">-6,0,0</node>
			<node id="2">-6,0,1</node>
			<node id="3">-6,0.16666667,0</node>
			<node id="4">-6,0.16666667,1</node>
			<node id="5">-6,0.33333333,0</node>
			<node id="6">-6,0.33333333,1</node>
			<node id="7">-6,0.5,0</node>
			<node id="8">-6,0.5,1</node>
			<node id="9">-6,0.66666667,0</node>
			<node id="10">-6,0.66666667,1</node>
			<node id="11">-6,0.83333333,0</node>
			<node id="12">-6,0.83333333,1</node>
			<node id="13">-6,1,0</node>
			<node id="14">-6,1,1</node>
			<node id="15">-6,1.1666667,0</node>
			<node id="16">-6,1.1666667,1</node>
			<node id="17">-6,1.3333333,0</node>
			<node id="18">-6,1.3333333,1</node>
			<node id="19">-6,1.5,0</node>
			<node id="20">-6,1.5,1</node>
<!-- ... 368 like lines cut -->
		</Nodes>
		<Elements type="hex8" name="Part25">
			<elem id="1">1,27,29,3,2,28,30,4</elem>
			<elem id="2">3,29,31,5,4,30,32,6</elem>
			<elem id="3">5,31,33,7,6,32,34,8</elem>
			<elem id="4">7,33,35,9,8,34,36,10</elem>
			<elem id="5">9,35,37,11,10,36,38,12</elem>
			<elem id="6">11,37,39,13,12,38,40,14</elem>
			<elem id="7">13,39,41,15,14,40,42,16</elem>
			<elem id="8">15,41,43,17,16,42,44,18</elem>
			<elem id="9">17,43,45,19,18,44,46,20</elem>
			<elem id="10">19,45,47,21,20,46,48,22</elem>
			<elem id="11">21,47,49,23,22,48,50,24</elem>
			<elem id="12">23,49,51,25,24,50,52,26</elem>
			<elem id="13">27,53,55,29,28,54,56,30</elem>
			<elem id="14">29,55,57,31,30,56,58,32</elem>
			<elem id="15">31,57,59,33,32,58,60,34</elem>
			<elem id="16">33,59,61,35,34,60,62,36</elem>
			<elem id="17">35,61,63,37,36,62,64,38</elem>
			<elem id="18">37,63,65,39,38,64,66,40</elem>
			<elem id="19">39,65,67,41,40,66,68,42</elem>
			<elem id="20">41,67,69,43,42,68,70,44</elem>
<!-- ... 124 like lines cut -->
		</Elements>
		<NodeSet name="FixedDisplacement01">
			<n id="1"/>
			<n id="2"/>
			<n id="3"/>
			<n id="4"/>
			<n id="5"/>
			<n id="6"/>
			<n id="7"/>
			<n id="8"/>
			<n id="9"/>
			<n id="10"/>
			<n id="11"/>
			<n id="12"/>
			<n id="13"/>
			<n id="14"/>
			<n id="15"/>
			<n id="16"/>
			<n id="17"/>
			<n id="18"/>
			<n id="19"/>
			<n id="20"/>
<!-- ... 368 like lines cut -->
		</NodeSet>
		<NodeSet name="FixedDisplacement02">
			<n id="1"/>
			<n id="2"/>
			<n id="3"/>
			<n id="4"/>
			<n id="5"/>
			<n id="6"/>
			<n id="7"/>
			<n id="8"/>
			<n id="9"/>
			<n id="10"/>
			<n id="11"/>
			<n id="12"/>
			<n id="13"/>
			<n id="14"/>
			<n id="15"/>
			<n id="16"/>
			<n id="17"/>
			<n id="18"/>
			<n id="19"/>
			<n id="20"/>
<!-- ... 148 like lines cut -->
		</NodeSet>
		<NodeSet name="FixedDisplacement03">
			<n id="157"/>
			<n id="158"/>
			<n id="215"/>
			<n id="216"/>
			<n id="273"/>
			<n id="274"/>
			<n id="331"/>
			<n id="332"/>
		</NodeSet>
		<NodeSet name="PrescribedBC58">
			<n id="25"/>
			<n id="26"/>
			<n id="51"/>
			<n id="52"/>
			<n id="77"/>
			<n id="78"/>
			<n id="103"/>
			<n id="104"/>
			<n id="129"/>
			<n id="130"/>
			<n id="155"/>
			<n id="156"/>
		</NodeSet>
		<Surface name="PrimarySurface01">
			<quad4 id="1">271,213,214,272</quad4>
			<quad4 id="2">329,271,272,330</quad4>
			<quad4 id="3">387,329,330,388</quad4>
		</Surface>
		<Surface name="SecondarySurface01">
			<quad4 id="1">1,27,28,2</quad4>
			<quad4 id="2">27,53,54,28</quad4>
			<quad4 id="3">53,79,80,54</quad4>
			<quad4 id="4">79,105,106,80</quad4>
			<quad4 id="5">105,131,132,106</quad4>
		</Surface>
		<ElementSet name="unnamed_set01">
			<e id="60"/>
		</ElementSet>
		<SurfacePair name="TCInterface01">
			<primary>PrimarySurface01</primary>
			<secondary>SecondarySurface01</secondary>
		</SurfacePair>
	</Mesh>
	<MeshDomains>
		<SolidDomain name="Part25" mat="Material 1"/>
	</MeshDomains>
	<Boundary>
		<bc name="FixedDisplacement01" type="fix" node_set="FixedDisplacement01">
			<dofs>z</dofs>
		</bc>
		<bc name="FixedDisplacement02" type="fix" node_set="FixedDisplacement02">
			<dofs>x</dofs>
		</bc>
		<bc name="FixedDisplacement03" type="fix" node_set="FixedDisplacement03">
			<dofs>y</dofs>
		</bc>
		<bc name="PrescribedBC58" type="prescribe" node_set="PrescribedBC58">
			<dof>y</dof>
			<scale lc="1">1</scale>
			<relative>0</relative>
		</bc>
	</Boundary>
	<Contact>
		<contact type="sliding-elastic" name="TCInterface01" surface_pair="TCInterface01">
			<laugon>0</laugon>
			<tolerance>0.05</tolerance>
			<gaptol>0</gaptol>
			<penalty>1</penalty>
			<auto_penalty>1</auto_penalty>
			<two_pass>1</two_pass>
			<search_tol>0.01</search_tol>
			<symmetric_stiffness>0</symmetric_stiffness>
			<search_radius>1</search_radius>
			<seg_up>0</seg_up>
			<tension>0</tension>
			<minaug>0</minaug>
			<maxaug>10</maxaug>
			<fric_coeff>0</fric_coeff>
			<smooth_aug>0</smooth_aug>
			<node_reloc>0</node_reloc>
			<flip_primary>0</flip_primary>
			<flip_secondary>0</flip_secondary>
			<knmult>0</knmult>
			<update_penalty>0</update_penalty>
		</contact>
	</Contact>
	<LoadData>
		<load_controller id="1" type="loadcurve">
			<interpolate>LINEAR</interpolate>
			<points>
				<point>0,0</point>
				<point>5000,-0.5</point>
				<point>10000,-0.5</point>
			</points>
		</load_controller>
	</LoadData>
	<Output>
		<plotfile type="febio">
			<var type="displacement"/>
			<var type="stress"/>
		</plotfile>
		<logfile>
			<element_data data="sy" elem_set="unnamed_set01"/>
		</logfile>
	</Output>
</febio_spec>
