<?xml version="1.0" encoding="ISO-8859-1"?>
<febio_spec version="3.0">
	<Module type="solid"/>
	<Control>
		<analysis>STATIC</analysis>
		<time_steps>10</time_steps>
		<step_size>0.1</step_size>
		<solver>
			<max_refs>15</max_refs>
			<max_ups>0</max_ups>
			<diverge_reform>1</diverge_reform>
			<reform_each_time_step>1</reform_each_time_step>
			<dtol>0.001</dtol>
			<etol>0.01</etol>
			<rtol>0</rtol>
			<lstol>0.9</lstol>
			<min_residual>1e-20</min_residual>
			<qnmethod>BFGS</qnmethod>
			<rhoi>-2</rhoi>
		</solver>
		<time_stepper>
			<dtmin>0.01</dtmin>
			<dtmax>0.1</dtmax>
			<max_retries>5</max_retries>
			<opt_iter>10</opt_iter>
		</time_stepper>
	</Control>
	<Globals>
		<Constants>
			<T>0</T>
			<R>0</R>
			<Fc>0</Fc>
		</Constants>
	</Globals>
	<Material>
		<material id="1" name="Material 3" type="neo-Hookean">
			<density>1</density>
			<E>1</E>
			<v>0.499</v>
		</material>
		<material id="2" name="Material 4" type="neo-Hookean">
			<density>1</density>
			<E>1</E>
			<v>0.499</v>
		</material>
	</Material>
	<Mesh>
		<Nodes name="Object01">
			<node id="1">-2.5,-2.5,0</node>
			<node id="2">-2.5,-2.5,0.5</node>
			<node id="3">-2.5,-2.5,1</node>
			<node id="4">-2.5,-1.5,0</node>
			<node id="5">-2.5,-1.5,0.5</node>
			<node id="6">-2.5,-1.5,1</node>
			<node id="7">-2.5,-0.5,0</node>
			<node id="8">-2.5,-0.5,0.5</node>
			<node id="9">-2.5,-0.5,1</node>
			<node id="10">-2.5,0.5,0</node>
			<node id="11">-2.5,0.5,0.5</node>
			<node id="12">-2.5,0.5,1</node>
			<node id="13">-2.5,1.5,0</node>
			<node id="14">-2.5,1.5,0.5</node>
			<node id="15">-2.5,1.5,1</node>
			<node id="16">-2.5,2.5,0</node>
			<node id="17">-2.5,2.5,0.5</node>
			<node id="18">-2.5,2.5,1</node>
			<node id="19">-1.5,-2.5,0</node>
			<node id="20">-1.5,-2.5,0.5</node>
<!-- ... 196 like lines cut -->
		</Nodes>
		<Elements type="hex8" name="Part28">
			<elem id="1">1,19,22,4,2,20,23,5</elem>
			<elem id="2">2,20,23,5,3,21,24,6</elem>
			<elem id="3">4,22,25,7,5,23,26,8</elem>
			<elem id="4">5,23,26,8,6,24,27,9</elem>
			<elem id="5">7,25,28,10,8,26,29,11</elem>
			<elem id="6">8,26,29,11,9,27,30,12</elem>
			<elem id="7">10,28,31,13,11,29,32,14</elem>
			<elem id="8">11,29,32,14,12,30,33,15</elem>
			<elem id="9">13,31,34,16,14,32,35,17</elem>
			<elem id="10">14,32,35,17,15,33,36,18</elem>
			<elem id="11">19,37,40,22,20,38,41,23</elem>
			<elem id="12">20,38,41,23,21,39,42,24</elem>
			<elem id="13">22,40,43,25,23,41,44,26</elem>
			<elem id="14">23,41,44,26,24,42,45,27</elem>
			<elem id="15">25,43,46,28,26,44,47,29</elem>
			<elem id="16">26,44,47,29,27,45,48,30</elem>
			<elem id="17">28,46,49,31,29,47,50,32</elem>
			<elem id="18">29,47,50,32,30,48,51,33</elem>
			<elem id="19">31,49,52,34,32,50,53,35</elem>
			<elem id="20">32,50,53,35,33,51,54,36</elem>
<!-- ... 30 like lines cut -->
		</Elements>
		<Elements type="hex8" name="Part29">
			<elem id="51">109,127,130,112,110,128,131,113</elem>
			<elem id="52">110,128,131,113,111,129,132,114</elem>
			<elem id="53">112,130,133,115,113,131,134,116</elem>
			<elem id="54">113,131,134,116,114,132,135,117</elem>
			<elem id="55">115,133,136,118,116,134,137,119</elem>
			<elem id="56">116,134,137,119,117,135,138,120</elem>
			<elem id="57">118,136,139,121,119,137,140,122</elem>
			<elem id="58">119,137,140,122,120,138,141,123</elem>
			<elem id="59">121,139,142,124,122,140,143,125</elem>
			<elem id="60">122,140,143,125,123,141,144,126</elem>
			<elem id="61">127,145,148,130,128,146,149,131</elem>
			<elem id="62">128,146,149,131,129,147,150,132</elem>
			<elem id="63">130,148,151,133,131,149,152,134</elem>
			<elem id="64">131,149,152,134,132,150,153,135</elem>
			<elem id="65">133,151,154,136,134,152,155,137</elem>
			<elem id="66">134,152,155,137,135,153,156,138</elem>
			<elem id="67">136,154,157,139,137,155,158,140</elem>
			<elem id="68">137,155,158,140,138,156,159,141</elem>
			<elem id="69">139,157,160,142,140,158,161,143</elem>
			<elem id="70">140,158,161,143,141,159,162,144</elem>
<!-- ... 30 like lines cut -->
		</Elements>
		<NodeSet name="FixedDisplacement01">
			<n id="3"/>
			<n id="6"/>
			<n id="9"/>
			<n id="12"/>
			<n id="15"/>
			<n id="18"/>
			<n id="21"/>
			<n id="24"/>
			<n id="27"/>
			<n id="30"/>
			<n id="33"/>
			<n id="36"/>
			<n id="39"/>
			<n id="42"/>
			<n id="45"/>
			<n id="48"/>
			<n id="51"/>
			<n id="54"/>
			<n id="57"/>
			<n id="60"/>
<!-- ... 52 like lines cut -->
		</NodeSet>
		<NodeSet name="FixedDisplacement02">
			<n id="3"/>
			<n id="6"/>
			<n id="9"/>
			<n id="12"/>
			<n id="15"/>
			<n id="18"/>
			<n id="21"/>
			<n id="24"/>
			<n id="27"/>
			<n id="30"/>
			<n id="33"/>
			<n id="36"/>
			<n id="39"/>
			<n id="42"/>
			<n id="45"/>
			<n id="48"/>
			<n id="51"/>
			<n id="54"/>
			<n id="57"/>
			<n id="60"/>
<!-- ... 52 like lines cut -->
		</NodeSet>
		<NodeSet name="FixedDisplacement03">
			<n id="109"/>
			<n id="112"/>
			<n id="115"/>
			<n id="118"/>
			<n id="121"/>
			<n id="124"/>
			<n id="127"/>
			<n id="130"/>
			<n id="133"/>
			<n id="136"/>
			<n id="139"/>
			<n id="142"/>
			<n id="145"/>
			<n id="148"/>
			<n id="151"/>
			<n id="154"/>
			<n id="157"/>
			<n id="160"/>
			<n id="163"/>
			<n id="166"/>
<!-- ... 16 like lines cut -->
		</NodeSet>
		<NodeSet name="PrescribedBC59">
			<n id="3"/>
			<n id="6"/>
			<n id="9"/>
			<n id="12"/>
			<n id="15"/>
			<n id="18"/>
			<n id="21"/>
			<n id="24"/>
			<n id="27"/>
			<n id="30"/>
			<n id="33"/>
			<n id="36"/>
			<n id="39"/>
			<n id="42"/>
			<n id="45"/>
			<n id="48"/>
			<n id="51"/>
			<n id="54"/>
			<n id="57"/>
			<n id="60"/>
<!-- ... 16 like lines cut -->
		</NodeSet>
		<Surface name="PrimarySurface01">
			<quad4 id="1">4,22,19,1</quad4>
			<quad4 id="2">7,25,22,4</quad4>
			<quad4 id="3">10,28,25,7</quad4>
			<quad4 id="4">13,31,28,10</quad4>
			<quad4 id="5">16,34,31,13</quad4>
			<quad4 id="6">22,40,37,19</quad4>
			<quad4 id="7">25,43,40,22</quad4>
			<quad4 id="8">28,46,43,25</quad4>
			<quad4 id="9">31,49,46,28</quad4>
			<quad4 id="10">34,52,49,31</quad4>
			<quad4 id="11">40,58,55,37</quad4>
			<quad4 id="12">43,61,58,40</quad4>
			<quad4 id="13">46,64,61,43</quad4>
			<quad4 id="14">49,67,64,46</quad4>
			<quad4 id="15">52,70,67,49</quad4>
			<quad4 id="16">58,76,73,55</quad4>
			<quad4 id="17">61,79,76,58</quad4>
			<quad4 id="18">64,82,79,61</quad4>
			<quad4 id="19">67,85,82,64</quad4>
			<quad4 id="20">70,88,85,67</quad4>
<!-- ... 5 like lines cut -->
		</Surface>
		<Surface name="SecondarySurface01">
			<quad4 id="1">111,129,132,114</quad4>
			<quad4 id="2">114,132,135,117</quad4>
			<quad4 id="3">117,135,138,120</quad4>
			<quad4 id="4">120,138,141,123</quad4>
			<quad4 id="5">123,141,144,126</quad4>
			<quad4 id="6">129,147,150,132</quad4>
			<quad4 id="7">132,150,153,135</quad4>
			<quad4 id="8">135,153,156,138</quad4>
			<quad4 id="9">138,156,159,141</quad4>
			<quad4 id="10">141,159,162,144</quad4>
			<quad4 id="11">147,165,168,150</quad4>
			<quad4 id="12">150,168,171,153</quad4>
			<quad4 id="13">153,171,174,156</quad4>
			<quad4 id="14">156,174,177,159</quad4>
			<quad4 id="15">159,177,180,162</quad4>
			<quad4 id="16">165,183,186,168</quad4>
			<quad4 id="17">168,186,189,171</quad4>
			<quad4 id="18">171,189,192,174</quad4>
			<quad4 id="19">174,192,195,177</quad4>
			<quad4 id="20">177,195,198,180</quad4>
<!-- ... 5 like lines cut -->
		</Surface>
		<ElementSet name="unnamed_set01">
			<e id="100"/>
		</ElementSet>
		<SurfacePair name="SlidingContact01">
			<primary>PrimarySurface01</primary>
			<secondary>SecondarySurface01</secondary>
		</SurfacePair>
	</Mesh>
	<MeshDomains>
		<SolidDomain name="Part28" mat="Material 3"/>
		<SolidDomain name="Part29" mat="Material 4"/>
	</MeshDomains>
	<Boundary>
		<bc name="FixedDisplacement01" type="fix" node_set="FixedDisplacement01">
			<dofs>y</dofs>
		</bc>
		<bc name="FixedDisplacement02" type="fix" node_set="FixedDisplacement02">
			<dofs>x</dofs>
		</bc>
		<bc name="FixedDisplacement03" type="fix" node_set="FixedDisplacement03">
			<dofs>z</dofs>
		</bc>
		<bc name="PrescribedBC59" type="prescribe" node_set="PrescribedBC59">
			<dof>z</dof>
			<scale lc="1">1</scale>
			<relative>0</relative>
		</bc>
	</Boundary>
	<Contact>
		<contact type="sliding-facet-on-facet" name="SlidingContact01" surface_pair="SlidingContact01">
			<laugon>0</laugon>
			<tolerance>0.05</tolerance>
			<penalty>500</penalty>
			<two_pass>1</two_pass>
			<auto_penalty>0</auto_penalty>
			<fric_coeff>0</fric_coeff>
			<fric_penalty>0</fric_penalty>
			<search_tol>0.01</search_tol>
			<minaug>0</minaug>
			<maxaug>10</maxaug>
			<gaptol>0</gaptol>
			<seg_up>0</seg_up>
			<update_penalty>0</update_penalty>
		</contact>
	</Contact>
	<LoadData>
		<load_controller id="1" type="loadcurve">
			<interpolate>LINEAR</interpolate>
			<points>
				<point>0,0</point>
				<point>1,-0.5</point>
			</points>
		</load_controller>
	</LoadData>
	<Output>
		<plotfile type="febio">
			<var type="displacement"/>
			<var type="stress"/>
		</plotfile>
		<logfile>
			<element_data data="sx" elem_set="unnamed_set01"/>
		</logfile>
	</Output>
</febio_spec>
