<?xml version="1.0" encoding="ISO-8859-1"?>
<!--
Problem Description:
	A small hollow sphere rests inside a larger rigid hollow sphere and is allowed to
	contract due to the force of gravity.
Main Features:
	Sliding Contact
Secondary Features:
	Augmented Lagrangian
Materials:
	Neo-Hookean
	Rigid Bodies
Degrees of Freedom: 445
Results:
	Steps Completed: 16
	Equilibrium Iterations: 169
	Right Hand Evaluations: 242
	Siffness Reformations: 22
	Other:
		The maximum effective strain is 0.189 at time t=1.
Comments:
	
-->
<febio_spec version="3.0">
	<Module type="solid"/>
	<Control>
		<analysis>STATIC</analysis>
		<time_steps>10</time_steps>
		<step_size>0.1</step_size>
		<solver>
			<max_refs>15</max_refs>
			<max_ups>10</max_ups>
			<diverge_reform>1</diverge_reform>
			<reform_each_time_step>1</reform_each_time_step>
			<dtol>0.001</dtol>
			<etol>0.01</etol>
			<rtol>0</rtol>
			<lstol>0.9</lstol>
			<min_residual>1e-20</min_residual>
			<qnmethod>BFGS</qnmethod>
			<rhoi>-2</rhoi>
		</solver>
		<time_stepper>
			<dtmin>0.01</dtmin>
			<dtmax>0.1</dtmax>
			<max_retries>5</max_retries>
			<opt_iter>10</opt_iter>
		</time_stepper>
	</Control>
	<Globals>
		<Constants>
			<T>0</T>
			<R>0</R>
			<Fc>0</Fc>
		</Constants>
	</Globals>
	<Material>
		<material id="1" name="Material 1" type="rigid body">
			<density>1</density>
			<center_of_mass>0,0,0</center_of_mass>
		</material>
		<material id="2" name="Material 2" type="neo-Hookean">
			<density>1</density>
			<E>1</E>
			<v>0</v>
		</material>
	</Material>
	<Mesh>
		<Nodes name="Object01">
			<node id="1">-0.56568543,0,-0.56568543</node>
			<node id="2">-0.72953722,0,-0.32829174</node>
			<node id="3">-0.80000001,0,0</node>
			<node id="4">-0.72953722,0,0.32829174</node>
			<node id="5">-0.56568543,0,0.56568543</node>
			<node id="6">-0.53905371,0.24257416,-0.53905371</node>
			<node id="7">-0.67491928,0.30371367,-0.30371367</node>
			<node id="8">-0.72953722,0.32829174,0</node>
			<node id="9">-0.67491928,0.30371367,0.30371367</node>
			<node id="10">-0.53905371,0.24257416,0.53905371</node>
			<node id="11">-0.46188022,0.46188022,-0.46188022</node>
			<node id="12">-0.53905371,0.53905371,-0.24257416</node>
			<node id="13">-0.56568543,0.56568543,0</node>
			<node id="14">-0.53905371,0.53905371,0.24257416</node>
			<node id="15">-0.46188022,0.46188022,0.46188022</node>
			<node id="16">-0.32829174,0,-0.72953722</node>
			<node id="17">-0.32829174,0,0.72953722</node>
			<node id="18">-0.30371367,0.30371367,-0.67491928</node>
			<node id="19">-0.30371367,0.30371367,0.67491928</node>
			<node id="20">-0.24257416,0.53905371,-0.53905371</node>
<!-- ... 322 like lines cut -->
		</Nodes>
		<Elements type="hex8" name="Part30">
			<elem id="1">6,1,2,7,63,58,59,64</elem>
			<elem id="2">7,2,3,8,64,59,60,65</elem>
			<elem id="3">8,3,4,9,65,60,61,66</elem>
			<elem id="4">9,4,5,10,66,61,62,67</elem>
			<elem id="5">11,6,7,12,68,63,64,69</elem>
			<elem id="6">12,7,8,13,69,64,65,70</elem>
			<elem id="7">13,8,9,14,70,65,66,71</elem>
			<elem id="8">14,9,10,15,71,66,67,72</elem>
			<elem id="9">43,48,49,44,100,105,106,101</elem>
			<elem id="10">44,49,50,45,101,106,107,102</elem>
			<elem id="11">45,50,51,46,102,107,108,103</elem>
			<elem id="12">46,51,52,47,103,108,109,104</elem>
			<elem id="13">48,53,54,49,105,110,111,106</elem>
			<elem id="14">49,54,55,50,106,111,112,107</elem>
			<elem id="15">50,55,56,51,107,112,113,108</elem>
			<elem id="16">51,56,57,52,108,113,114,109</elem>
			<elem id="17">20,11,12,21,77,68,69,78</elem>
			<elem id="18">21,12,13,22,78,69,70,79</elem>
			<elem id="19">22,13,14,23,79,70,71,80</elem>
			<elem id="20">23,14,15,24,80,71,72,81</elem>
<!-- ... 76 like lines cut -->
		</Elements>
		<Elements type="hex8" name="Part31">
			<elem id="97">177,172,173,178,234,229,230,235</elem>
			<elem id="98">178,173,174,179,235,230,231,236</elem>
			<elem id="99">179,174,175,180,236,231,232,237</elem>
			<elem id="100">180,175,176,181,237,232,233,238</elem>
			<elem id="101">182,177,178,183,239,234,235,240</elem>
			<elem id="102">183,178,179,184,240,235,236,241</elem>
			<elem id="103">184,179,180,185,241,236,237,242</elem>
			<elem id="104">185,180,181,186,242,237,238,243</elem>
			<elem id="105">214,219,220,215,271,276,277,272</elem>
			<elem id="106">215,220,221,216,272,277,278,273</elem>
			<elem id="107">216,221,222,217,273,278,279,274</elem>
			<elem id="108">217,222,223,218,274,279,280,275</elem>
			<elem id="109">219,224,225,220,276,281,282,277</elem>
			<elem id="110">220,225,226,221,277,282,283,278</elem>
			<elem id="111">221,226,227,222,278,283,284,279</elem>
			<elem id="112">222,227,228,223,279,284,285,280</elem>
			<elem id="113">191,182,183,192,248,239,240,249</elem>
			<elem id="114">192,183,184,193,249,240,241,250</elem>
			<elem id="115">193,184,185,194,250,241,242,251</elem>
			<elem id="116">194,185,186,195,251,242,243,252</elem>
<!-- ... 76 like lines cut -->
		</Elements>
		<NodeSet name="FixedDisplacement01">
			<n id="172"/>
			<n id="173"/>
			<n id="174"/>
			<n id="175"/>
			<n id="176"/>
			<n id="187"/>
			<n id="188"/>
			<n id="196"/>
			<n id="197"/>
			<n id="205"/>
			<n id="206"/>
			<n id="214"/>
			<n id="215"/>
			<n id="216"/>
			<n id="217"/>
			<n id="218"/>
			<n id="229"/>
			<n id="230"/>
			<n id="231"/>
			<n id="232"/>
<!-- ... 28 like lines cut -->
		</NodeSet>
		<NodeSet name="FixedDisplacement02">
			<n id="196"/>
			<n id="197"/>
			<n id="198"/>
			<n id="199"/>
			<n id="200"/>
			<n id="201"/>
			<n id="202"/>
			<n id="203"/>
			<n id="204"/>
			<n id="253"/>
			<n id="254"/>
			<n id="310"/>
			<n id="311"/>
			<n id="312"/>
			<n id="313"/>
			<n id="314"/>
			<n id="315"/>
			<n id="316"/>
			<n id="317"/>
			<n id="318"/>
		</NodeSet>
		<Surface name="PrimarySurface01">
			<quad4 id="1">291,286,287,292</quad4>
			<quad4 id="2">296,291,292,297</quad4>
			<quad4 id="3">328,333,334,329</quad4>
			<quad4 id="4">333,338,339,334</quad4>
			<quad4 id="5">305,296,297,306</quad4>
			<quad4 id="6">314,305,306,315</quad4>
			<quad4 id="7">323,314,315,324</quad4>
			<quad4 id="8">338,323,324,339</quad4>
			<quad4 id="9">286,291,303,301</quad4>
			<quad4 id="10">291,296,305,303</quad4>
			<quad4 id="11">301,303,312,310</quad4>
			<quad4 id="12">303,305,314,312</quad4>
			<quad4 id="13">310,312,321,319</quad4>
			<quad4 id="14">312,314,323,321</quad4>
			<quad4 id="15">319,321,333,328</quad4>
			<quad4 id="16">321,323,338,333</quad4>
		</Surface>
		<Surface name="SecondarySurface01">
			<quad4 id="1">7,2,1,6</quad4>
			<quad4 id="2">12,7,6,11</quad4>
			<quad4 id="3">44,49,48,43</quad4>
			<quad4 id="4">49,54,53,48</quad4>
			<quad4 id="5">21,12,11,20</quad4>
			<quad4 id="6">30,21,20,29</quad4>
			<quad4 id="7">39,30,29,38</quad4>
			<quad4 id="8">54,39,38,53</quad4>
			<quad4 id="9">16,18,6,1</quad4>
			<quad4 id="10">18,20,11,6</quad4>
			<quad4 id="11">25,27,18,16</quad4>
			<quad4 id="12">27,29,20,18</quad4>
			<quad4 id="13">34,36,27,25</quad4>
			<quad4 id="14">36,38,29,27</quad4>
			<quad4 id="15">43,48,36,34</quad4>
			<quad4 id="16">48,53,38,36</quad4>
		</Surface>
		<ElementSet name="unnamed_set01">
			<e id="123"/>
		</ElementSet>
		<SurfacePair name="SlidingInterface01">
			<primary>PrimarySurface01</primary>
			<secondary>SecondarySurface01</secondary>
		</SurfacePair>
	</Mesh>
	<MeshDomains>
		<SolidDomain name="Part30" mat="Material 1"/>
		<SolidDomain name="Part31" mat="Material 2"/>
	</MeshDomains>
	<Boundary>
		<bc name="FixedDisplacement01" type="fix" node_set="FixedDisplacement01">
			<dofs>y</dofs>
		</bc>
		<bc name="FixedDisplacement02" type="fix" node_set="FixedDisplacement02">
			<dofs>x</dofs>
		</bc>
	</Boundary>
	<Rigid>
		<rigid_constraint name="RigidFixed47" type="fix">
			<rb>1</rb>
			<dofs>Rx,Ry,Rz,Ru,Rv,Rw</dofs>
		</rigid_constraint>
	</Rigid>
	<Loads>
		<body_load type="const">
			<x lc="1">0</x>
			<y lc="2">0</y>
			<z lc="3">1</z>
		</body_load>
	</Loads>
	<Contact>
		<contact type="sliding-node-on-facet" name="SlidingInterface01" surface_pair="SlidingInterface01">
			<laugon>1</laugon>
			<tolerance>0.05</tolerance>
			<penalty>1</penalty>
			<two_pass>1</two_pass>
			<auto_penalty>0</auto_penalty>
			<fric_coeff>0</fric_coeff>
			<fric_penalty>0</fric_penalty>
			<search_tol>0.01</search_tol>
			<minaug>0</minaug>
			<maxaug>10</maxaug>
			<gaptol>0</gaptol>
			<seg_up>4</seg_up>
			<update_penalty>0</update_penalty>
		</contact>
	</Contact>
	<LoadData>
		<load_controller id="1" type="loadcurve">
			<interpolate>SMOOTH</interpolate>
			<points>
				<point>0,0</point>
				<point>1,1</point>
			</points>
		</load_controller>
		<load_controller id="2" type="loadcurve">
			<interpolate>SMOOTH</interpolate>
			<points>
				<point>0,0</point>
				<point>1,1</point>
			</points>
		</load_controller>
		<load_controller id="3" type="loadcurve">
			<interpolate>LINEAR</interpolate>
			<points>
				<point>0,0</point>
				<point>1,0.2</point>
			</points>
		</load_controller>
	</LoadData>
	<Output>
		<plotfile type="febio">
			<var type="displacement"/>
			<var type="stress"/>
		</plotfile>
		<logfile>
			<element_data data="Ex" elem_set="unnamed_set01"/>
		</logfile>
	</Output>
</febio_spec>
