<?xml version="1.0" encoding="ISO-8859-1"?>
<!--
Problem Description:
	A 2-D quarter billet with 1/4th symmetrical representation is compressed by a rigid bar
	with prescribed y-displacement of -0.3 units in time t=1.
Main Features:
	Facet to facet Contact
	Rigid Bodies
Secondary Features:
	
Materials:
	Ogden unconstrained
	Rigid Body
Degrees of Freedom:1221 
Results:
	Steps Completed: 15
	Equilibrium Iterations: 53
	Right Hand Evaluations: 68
	Siffness Reformations: 53

Comments:
	This problem is similar to co28 but with quater symmetry. 
-->
<febio_spec version="3.0">
	<Module type="solid"/>
	<Control>
		<analysis>STATIC</analysis>
		<time_steps>100</time_steps>
		<step_size>0.01</step_size>
		<solver>
			<max_refs>15</max_refs>
			<max_ups>0</max_ups>
			<diverge_reform>1</diverge_reform>
			<reform_each_time_step>1</reform_each_time_step>
			<dtol>0.001</dtol>
			<etol>0.01</etol>
			<rtol>0</rtol>
			<lstol>0.9</lstol>
			<min_residual>1e-20</min_residual>
			<qnmethod>BFGS</qnmethod>
			<rhoi>-2</rhoi>
		</solver>
		<time_stepper>
			<dtmin>0.001</dtmin>
			<dtmax>0.1</dtmax>
			<max_retries>5</max_retries>
			<opt_iter>10</opt_iter>
		</time_stepper>
	</Control>
	<Globals>
		<Constants>
			<T>0</T>
			<R>0</R>
			<Fc>0</Fc>
		</Constants>
	</Globals>
	<Material>
		<material id="1" name="billet" type="Ogden unconstrained">
			<density>1</density>
			<cp>0.1</cp>
			<c1>0.0329</c1>
			<c2>0</c2>
			<c3>0</c3>
			<c4>0</c4>
			<c5>0</c5>
			<c6>0</c6>
			<m1>6.82</m1>
			<m2>1</m2>
			<m3>1</m3>
			<m4>1</m4>
			<m5>1</m5>
			<m6>1</m6>
		</material>
		<material id="2" name="Material 2" type="rigid body">
			<density>1</density>
		</material>
	</Material>
	<Mesh>
		<Nodes name="Object01">
			<node id="1">0,0,-0.025</node>
			<node id="2">0.025,0,-0.025</node>
			<node id="3">0.05,0,-0.025</node>
			<node id="4">0.075,0,-0.025</node>
			<node id="5">0.1,0,-0.025</node>
			<node id="6">0.125,0,-0.025</node>
			<node id="7">0.15,0,-0.025</node>
			<node id="8">0.175,0,-0.025</node>
			<node id="9">0.2,0,-0.025</node>
			<node id="10">0.225,0,-0.025</node>
			<node id="11">0.25,0,-0.025</node>
			<node id="12">0,0.025,-0.025</node>
			<node id="13">0.025,0.025,-0.025</node>
			<node id="14">0.05,0.025,-0.025</node>
			<node id="15">0.075,0.025,-0.025</node>
			<node id="16">0.1,0.025,-0.025</node>
			<node id="17">0.125,0.025,-0.025</node>
			<node id="18">0.15,0.025,-0.025</node>
			<node id="19">0.175,0.025,-0.025</node>
			<node id="20">0.2,0.025,-0.025</node>
<!-- ... 650 like lines cut -->
		</Nodes>
		<Elements type="hex8" name="Part1">
			<elem id="1">1,2,13,12,122,123,134,133</elem>
			<elem id="2">2,3,14,13,123,124,135,134</elem>
			<elem id="3">3,4,15,14,124,125,136,135</elem>
			<elem id="4">4,5,16,15,125,126,137,136</elem>
			<elem id="5">5,6,17,16,126,127,138,137</elem>
			<elem id="6">6,7,18,17,127,128,139,138</elem>
			<elem id="7">7,8,19,18,128,129,140,139</elem>
			<elem id="8">8,9,20,19,129,130,141,140</elem>
			<elem id="9">9,10,21,20,130,131,142,141</elem>
			<elem id="10">10,11,22,21,131,132,143,142</elem>
			<elem id="11">12,13,24,23,133,134,145,144</elem>
			<elem id="12">13,14,25,24,134,135,146,145</elem>
			<elem id="13">14,15,26,25,135,136,147,146</elem>
			<elem id="14">15,16,27,26,136,137,148,147</elem>
			<elem id="15">16,17,28,27,137,138,149,148</elem>
			<elem id="16">17,18,29,28,138,139,150,149</elem>
			<elem id="17">18,19,30,29,139,140,151,150</elem>
			<elem id="18">19,20,31,30,140,141,152,151</elem>
			<elem id="19">20,21,32,31,141,142,153,152</elem>
			<elem id="20">21,22,33,32,142,143,154,153</elem>
<!-- ... 280 like lines cut -->
		</Elements>
		<Elements type="hex8" name="Part2">
			<elem id="301">663,667,669,665,664,668,670,666</elem>
		</Elements>
		<NodeSet name="FixedDisplacement01">
			<n id="1"/>
			<n id="2"/>
			<n id="3"/>
			<n id="4"/>
			<n id="5"/>
			<n id="6"/>
			<n id="7"/>
			<n id="8"/>
			<n id="9"/>
			<n id="10"/>
			<n id="11"/>
			<n id="12"/>
			<n id="13"/>
			<n id="14"/>
			<n id="15"/>
			<n id="16"/>
			<n id="17"/>
			<n id="18"/>
			<n id="19"/>
			<n id="20"/>
<!-- ... 642 like lines cut -->
		</NodeSet>
		<NodeSet name="FixedDisplacement02">
			<n id="1"/>
			<n id="2"/>
			<n id="3"/>
			<n id="4"/>
			<n id="5"/>
			<n id="6"/>
			<n id="7"/>
			<n id="8"/>
			<n id="9"/>
			<n id="10"/>
			<n id="11"/>
			<n id="122"/>
			<n id="123"/>
			<n id="124"/>
			<n id="125"/>
			<n id="126"/>
			<n id="127"/>
			<n id="128"/>
			<n id="129"/>
			<n id="130"/>
<!-- ... 22 like lines cut -->
		</NodeSet>
		<NodeSet name="FixedDisplacement03">
			<n id="1"/>
			<n id="12"/>
			<n id="23"/>
			<n id="34"/>
			<n id="45"/>
			<n id="56"/>
			<n id="67"/>
			<n id="78"/>
			<n id="89"/>
			<n id="100"/>
			<n id="111"/>
			<n id="122"/>
			<n id="133"/>
			<n id="144"/>
			<n id="155"/>
			<n id="166"/>
			<n id="177"/>
			<n id="188"/>
			<n id="199"/>
			<n id="210"/>
<!-- ... 42 like lines cut -->
		</NodeSet>
		<Surface name="PrimarySurface01">
			<quad4 id="1">621,622,643,642</quad4>
			<quad4 id="2">622,623,644,643</quad4>
			<quad4 id="3">623,624,645,644</quad4>
			<quad4 id="4">624,625,646,645</quad4>
			<quad4 id="5">625,626,647,646</quad4>
			<quad4 id="6">626,627,648,647</quad4>
			<quad4 id="7">627,628,649,648</quad4>
			<quad4 id="8">628,629,650,649</quad4>
			<quad4 id="9">629,630,651,650</quad4>
			<quad4 id="10">632,631,652,653</quad4>
			<quad4 id="11">633,632,653,654</quad4>
			<quad4 id="12">634,633,654,655</quad4>
			<quad4 id="13">635,634,655,656</quad4>
			<quad4 id="14">636,635,656,657</quad4>
			<quad4 id="15">637,636,657,658</quad4>
			<quad4 id="16">638,637,658,659</quad4>
			<quad4 id="17">639,638,659,660</quad4>
			<quad4 id="18">640,639,660,661</quad4>
			<quad4 id="19">630,641,662,651</quad4>
			<quad4 id="20">641,640,661,662</quad4>
		</Surface>
		<Surface name="SecondarySurface01">
			<quad4 id="1">663,667,668,664</quad4>
		</Surface>
		<ElementSet name="unnamed_set01">
			<e id="1"/>
		</ElementSet>
		<SurfacePair name="SlidingContact01">
			<primary>PrimarySurface01</primary>
			<secondary>SecondarySurface01</secondary>
		</SurfacePair>
	</Mesh>
	<MeshDomains>
		<SolidDomain name="Part1" mat="billet"/>
		<SolidDomain name="Part2" mat="Material 2"/>
	</MeshDomains>
	<Boundary>
		<bc name="FixedDisplacement01" type="fix" node_set="FixedDisplacement01">
			<dofs>z</dofs>
		</bc>
		<bc name="FixedDisplacement02" type="fix" node_set="FixedDisplacement02">
			<dofs>y</dofs>
		</bc>
		<bc name="FixedDisplacement03" type="fix" node_set="FixedDisplacement03">
			<dofs>x</dofs>
		</bc>
	</Boundary>
	<Rigid>
		<rigid_constraint name="RigidDisplacement24" type="prescribe">
			<rb>2</rb>
			<dof>Ry</dof>
			<value lc="1">1</value>
		</rigid_constraint>
		<rigid_constraint name="RigidFixed51" type="fix">
			<rb>2</rb>
			<dofs>Rx,Rz,Ru,Rv,Rw</dofs>
		</rigid_constraint>
	</Rigid>
	<Contact>
		<contact type="sliding-facet-on-facet" name="SlidingContact01" surface_pair="SlidingContact01">
			<laugon>0</laugon>
			<tolerance>0.1</tolerance>
			<penalty>50</penalty>
			<two_pass>0</two_pass>
			<auto_penalty>1</auto_penalty>
			<fric_coeff>0</fric_coeff>
			<fric_penalty>0</fric_penalty>
			<search_tol>0.01</search_tol>
			<minaug>0</minaug>
			<maxaug>10</maxaug>
			<gaptol>0</gaptol>
			<seg_up>0</seg_up>
			<update_penalty>0</update_penalty>
		</contact>
	</Contact>
	<LoadData>
		<load_controller id="1" type="loadcurve">
			<interpolate>LINEAR</interpolate>
			<points>
				<point>0,0</point>
				<point>1,-0.3</point>
			</points>
		</load_controller>
	</LoadData>
	<Output>
		<plotfile type="febio">
			<var type="displacement"/>
			<var type="stress"/>
		</plotfile>
		<logfile>
			<element_data data="Ex" elem_set="unnamed_set01"/>
		</logfile>
	</Output>
</febio_spec>
