<?xml version="1.0" encoding="ISO-8859-1"?>
<!--
A serpentine surface is compressed along the x-direction experiencing self-contact and
demonstrating the need of reducing the search_radius contact parameter from it's default
value of 1.
-->
<febio_spec version="3.0">
	<Module type="solid"/>
	<Control>
		<analysis>STATIC</analysis>
		<time_steps>10</time_steps>
		<step_size>0.1</step_size>
		<solver>
			<max_refs>15</max_refs>
			<max_ups>0</max_ups>
			<diverge_reform>1</diverge_reform>
			<reform_each_time_step>1</reform_each_time_step>
			<dtol>0.001</dtol>
			<etol>0.01</etol>
			<rtol>0</rtol>
			<lstol>0.9</lstol>
			<min_residual>1e-20</min_residual>
			<qnmethod>BFGS</qnmethod>
			<rhoi>-2</rhoi>
			<symmetric_stiffness>0</symmetric_stiffness>
		</solver>
		<time_stepper>
			<dtmin>0.01</dtmin>
			<dtmax>0.1</dtmax>
			<max_retries>5</max_retries>
			<opt_iter>10</opt_iter>
		</time_stepper>
	</Control>
	<Globals>
		<Constants>
			<T>0</T>
			<R>0</R>
			<Fc>0</Fc>
		</Constants>
	</Globals>
	<Material>
		<material id="1" name="Material1" type="neo-Hookean">
			<density>1</density>
			<E>1</E>
			<v>0.3</v>
		</material>
	</Material>
	<Mesh>
		<Nodes name="Object01">
			<node id="1">-3.2,0,0</node>
			<node id="2">-3.2,0,1</node>
			<node id="3">-3.2,0.16666667,0</node>
			<node id="4">-3.2,0.16666667,1</node>
			<node id="5">-3.2,0.33333333,0</node>
			<node id="6">-3.2,0.33333333,1</node>
			<node id="7">-3.2,0.5,0</node>
			<node id="8">-3.2,0.5,1</node>
			<node id="9">-3.2,0.66666667,0</node>
			<node id="10">-3.2,0.66666667,1</node>
			<node id="11">-3.2,0.83333333,0</node>
			<node id="12">-3.2,0.83333333,1</node>
			<node id="13">-3.2,1,0</node>
			<node id="14">-3.2,1,1</node>
			<node id="15">-2.975,0,0</node>
			<node id="16">-2.975,0,1</node>
			<node id="17">-2.975,0.16666667,0</node>
			<node id="18">-2.975,0.16666667,1</node>
			<node id="19">-2.975,0.33333333,0</node>
			<node id="20">-2.975,0.33333333,1</node>
<!-- ... 1150 like lines cut -->
		</Nodes>
		<Elements type="hex8" name="Part4">
			<elem id="1">1,15,17,3,2,16,18,4</elem>
			<elem id="2">3,17,19,5,4,18,20,6</elem>
			<elem id="3">5,19,21,7,6,20,22,8</elem>
			<elem id="4">7,21,23,9,8,22,24,10</elem>
			<elem id="5">9,23,25,11,10,24,26,12</elem>
			<elem id="6">11,25,27,13,12,26,28,14</elem>
			<elem id="7">15,29,31,17,16,30,32,18</elem>
			<elem id="8">17,31,33,19,18,32,34,20</elem>
			<elem id="9">19,33,35,21,20,34,36,22</elem>
			<elem id="10">21,35,37,23,22,36,38,24</elem>
			<elem id="11">23,37,39,25,24,38,40,26</elem>
			<elem id="12">25,39,41,27,26,40,42,28</elem>
			<elem id="13">29,43,45,31,30,44,46,32</elem>
			<elem id="14">31,45,47,33,32,46,48,34</elem>
			<elem id="15">33,47,49,35,34,48,50,36</elem>
			<elem id="16">35,49,51,37,36,50,52,38</elem>
			<elem id="17">37,51,53,39,38,52,54,40</elem>
			<elem id="18">39,53,55,41,40,54,56,42</elem>
			<elem id="19">43,57,59,45,44,58,60,46</elem>
			<elem id="20">45,59,61,47,46,60,62,48</elem>
<!-- ... 444 like lines cut -->
		</Elements>
		<NodeSet name="FixedDisplacement01">
			<n id="1"/>
			<n id="2"/>
			<n id="3"/>
			<n id="4"/>
			<n id="5"/>
			<n id="6"/>
			<n id="7"/>
			<n id="8"/>
			<n id="9"/>
			<n id="10"/>
			<n id="11"/>
			<n id="12"/>
			<n id="13"/>
			<n id="14"/>
			<n id="15"/>
			<n id="16"/>
			<n id="17"/>
			<n id="18"/>
			<n id="19"/>
			<n id="20"/>
<!-- ... 1150 like lines cut -->
		</NodeSet>
		<NodeSet name="FixedDisplacement02">
			<n id="1"/>
			<n id="2"/>
			<n id="15"/>
			<n id="16"/>
			<n id="29"/>
			<n id="30"/>
			<n id="43"/>
			<n id="44"/>
			<n id="57"/>
			<n id="58"/>
			<n id="1011"/>
			<n id="1012"/>
			<n id="1023"/>
			<n id="1024"/>
			<n id="1035"/>
			<n id="1036"/>
			<n id="1047"/>
			<n id="1048"/>
			<n id="1059"/>
			<n id="1060"/>
		</NodeSet>
		<NodeSet name="FixedDisplacement03">
			<n id="1"/>
			<n id="2"/>
		</NodeSet>
		<NodeSet name="PrescribedBC60">
			<n id="1059"/>
			<n id="1060"/>
		</NodeSet>
		<Surface name="PrimarySurface01">
			<quad4 id="1">3,1,2,4</quad4>
			<quad4 id="2">5,3,4,6</quad4>
			<quad4 id="3">7,5,6,8</quad4>
			<quad4 id="4">9,7,8,10</quad4>
			<quad4 id="5">11,9,10,12</quad4>
			<quad4 id="6">13,11,12,14</quad4>
			<quad4 id="7">81,76,161,166</quad4>
			<quad4 id="8">86,81,166,171</quad4>
			<quad4 id="9">91,86,171,176</quad4>
			<quad4 id="10">96,91,176,181</quad4>
			<quad4 id="11">101,96,181,186</quad4>
			<quad4 id="12">106,101,186,191</quad4>
			<quad4 id="13">111,106,191,196</quad4>
			<quad4 id="14">116,111,196,201</quad4>
			<quad4 id="15">121,116,201,206</quad4>
			<quad4 id="16">126,121,206,211</quad4>
			<quad4 id="17">131,126,211,216</quad4>
			<quad4 id="18">136,131,216,221</quad4>
			<quad4 id="19">141,136,221,226</quad4>
			<quad4 id="20">146,141,226,231</quad4>
<!-- ... 96 like lines cut -->
		</Surface>
		<Surface name="SecondarySurface01">
			<quad4 id="1">3,1,2,4</quad4>
			<quad4 id="2">5,3,4,6</quad4>
			<quad4 id="3">7,5,6,8</quad4>
			<quad4 id="4">9,7,8,10</quad4>
			<quad4 id="5">11,9,10,12</quad4>
			<quad4 id="6">13,11,12,14</quad4>
			<quad4 id="7">81,76,161,166</quad4>
			<quad4 id="8">86,81,166,171</quad4>
			<quad4 id="9">91,86,171,176</quad4>
			<quad4 id="10">96,91,176,181</quad4>
			<quad4 id="11">101,96,181,186</quad4>
			<quad4 id="12">106,101,186,191</quad4>
			<quad4 id="13">111,106,191,196</quad4>
			<quad4 id="14">116,111,196,201</quad4>
			<quad4 id="15">121,116,201,206</quad4>
			<quad4 id="16">126,121,206,211</quad4>
			<quad4 id="17">131,126,211,216</quad4>
			<quad4 id="18">136,131,216,221</quad4>
			<quad4 id="19">141,136,221,226</quad4>
			<quad4 id="20">146,141,226,231</quad4>
<!-- ... 96 like lines cut -->
		</Surface>
		<Surface name="PrimarySurface02">
			<quad4 id="1">57,59,60,58</quad4>
			<quad4 id="2">59,61,62,60</quad4>
			<quad4 id="3">61,63,64,62</quad4>
			<quad4 id="4">63,65,66,64</quad4>
			<quad4 id="5">65,67,68,66</quad4>
			<quad4 id="6">67,69,70,68</quad4>
			<quad4 id="7">80,85,170,165</quad4>
			<quad4 id="8">85,90,175,170</quad4>
			<quad4 id="9">90,95,180,175</quad4>
			<quad4 id="10">95,100,185,180</quad4>
			<quad4 id="11">100,105,190,185</quad4>
			<quad4 id="12">105,110,195,190</quad4>
			<quad4 id="13">110,115,200,195</quad4>
			<quad4 id="14">115,120,205,200</quad4>
			<quad4 id="15">120,125,210,205</quad4>
			<quad4 id="16">125,130,215,210</quad4>
			<quad4 id="17">130,135,220,215</quad4>
			<quad4 id="18">135,140,225,220</quad4>
			<quad4 id="19">140,145,230,225</quad4>
			<quad4 id="20">145,150,235,230</quad4>
<!-- ... 96 like lines cut -->
		</Surface>
		<Surface name="SecondarySurface02">
			<quad4 id="1">57,59,60,58</quad4>
			<quad4 id="2">59,61,62,60</quad4>
			<quad4 id="3">61,63,64,62</quad4>
			<quad4 id="4">63,65,66,64</quad4>
			<quad4 id="5">65,67,68,66</quad4>
			<quad4 id="6">67,69,70,68</quad4>
			<quad4 id="7">80,85,170,165</quad4>
			<quad4 id="8">85,90,175,170</quad4>
			<quad4 id="9">90,95,180,175</quad4>
			<quad4 id="10">95,100,185,180</quad4>
			<quad4 id="11">100,105,190,185</quad4>
			<quad4 id="12">105,110,195,190</quad4>
			<quad4 id="13">110,115,200,195</quad4>
			<quad4 id="14">115,120,205,200</quad4>
			<quad4 id="15">120,125,210,205</quad4>
			<quad4 id="16">125,130,215,210</quad4>
			<quad4 id="17">130,135,220,215</quad4>
			<quad4 id="18">135,140,225,220</quad4>
			<quad4 id="19">140,145,230,225</quad4>
			<quad4 id="20">145,150,235,230</quad4>
<!-- ... 96 like lines cut -->
		</Surface>
		<ElementSet name="unnamed_set01">
			<e id="411"/>
		</ElementSet>
		<SurfacePair name="TCInterface01">
			<primary>PrimarySurface01</primary>
			<secondary>SecondarySurface01</secondary>
		</SurfacePair>
		<SurfacePair name="TCInterface02">
			<primary>PrimarySurface02</primary>
			<secondary>SecondarySurface02</secondary>
		</SurfacePair>
	</Mesh>
	<MeshDomains>
		<SolidDomain name="Part4" mat="Material1"/>
	</MeshDomains>
	<Boundary>
		<bc name="FixedDisplacement01" type="fix" node_set="FixedDisplacement01">
			<dofs>z</dofs>
		</bc>
		<bc name="FixedDisplacement02" type="fix" node_set="FixedDisplacement02">
			<dofs>y</dofs>
		</bc>
		<bc name="FixedDisplacement03" type="fix" node_set="FixedDisplacement03">
			<dofs>x</dofs>
		</bc>
		<bc name="PrescribedBC60" type="prescribe" node_set="PrescribedBC60">
			<dof>x</dof>
			<scale lc="1">1</scale>
			<relative>0</relative>
		</bc>
	</Boundary>
	<Contact>
		<contact type="sliding-elastic" name="TCInterface01" surface_pair="TCInterface01">
			<laugon>0</laugon>
			<tolerance>0.2</tolerance>
			<gaptol>0</gaptol>
			<penalty>10</penalty>
			<auto_penalty>1</auto_penalty>
			<two_pass>0</two_pass>
			<search_tol>0.01</search_tol>
			<symmetric_stiffness>0</symmetric_stiffness>
			<search_radius>0.1</search_radius>
			<seg_up>0</seg_up>
			<tension>0</tension>
			<minaug>0</minaug>
			<maxaug>10</maxaug>
			<fric_coeff>0</fric_coeff>
			<smooth_aug>0</smooth_aug>
			<node_reloc>0</node_reloc>
			<flip_primary>0</flip_primary>
			<flip_secondary>0</flip_secondary>
			<knmult>0</knmult>
			<update_penalty>0</update_penalty>
		</contact>
		<contact type="sliding-elastic" name="TCInterface02" surface_pair="TCInterface02">
			<laugon>0</laugon>
			<tolerance>0.2</tolerance>
			<gaptol>0</gaptol>
			<penalty>10</penalty>
			<auto_penalty>1</auto_penalty>
			<two_pass>0</two_pass>
			<search_tol>0.01</search_tol>
			<symmetric_stiffness>0</symmetric_stiffness>
			<search_radius>0.1</search_radius>
			<seg_up>0</seg_up>
			<tension>0</tension>
			<minaug>0</minaug>
			<maxaug>10</maxaug>
			<fric_coeff>0</fric_coeff>
			<smooth_aug>0</smooth_aug>
			<node_reloc>0</node_reloc>
			<flip_primary>0</flip_primary>
			<flip_secondary>0</flip_secondary>
			<knmult>0</knmult>
			<update_penalty>0</update_penalty>
		</contact>
	</Contact>
	<LoadData>
		<load_controller id="1" type="loadcurve">
			<interpolate>SMOOTH</interpolate>
			<points>
				<point>0,0</point>
				<point>1,-1.5</point>
			</points>
		</load_controller>
	</LoadData>
	<Output>
		<plotfile type="febio">
			<var type="contact gap"/>
			<var type="contact pressure"/>
			<var type="displacement"/>
			<var type="relative volume"/>
			<var type="stress"/>
		</plotfile>
		<logfile>
			<element_data data="sx" elem_set="unnamed_set01"/>
		</logfile>
	</Output>
</febio_spec>
