<?xml version="1.0" encoding="ISO-8859-1"?>
<!--
Problem Description:
	A rigid non-circular cam rotates about a revolute joint and contacts a flat rigid follower,
	whose motion is restricted by a prismatic joint in parallel with a spring.
Main Features:
	Sliding elastic contact between two rigid bodies
Secondary Features:
	Rigid joints (revolute, prismatic)
	Rigid connector (spring)
Materials:
	Neo-Hookean
Degrees of Freedom: 12
Results:
	Steps Completed: 106
	Equilibrium Iterations: 458
	Right Hand Evaluations: 715
	Siffness Reformations: 458
	Other:
		The maximum Y-displacement of the follower is 12.6248
Comments:
	Lagrange augmentation cannot be used for contact between rigid bodies.
-->
<febio_spec version="3.0">
	<Module type="solid"/>
	<Control>
		<analysis>STATIC</analysis>
		<time_steps>100</time_steps>
		<step_size>0.01</step_size>
		<solver>
			<max_refs>25</max_refs>
			<max_ups>0</max_ups>
			<diverge_reform>1</diverge_reform>
			<reform_each_time_step>1</reform_each_time_step>
			<dtol>0.001</dtol>
			<etol>0.01</etol>
			<rtol>0</rtol>
			<lstol>0.9</lstol>
			<min_residual>1e-20</min_residual>
			<qnmethod>BROYDEN</qnmethod>
			<rhoi>0</rhoi>
			<symmetric_stiffness>0</symmetric_stiffness>
		</solver>
		<time_stepper>
			<dtmin>0.001</dtmin>
			<dtmax>0.01</dtmax>
			<max_retries>5</max_retries>
			<opt_iter>15</opt_iter>
		</time_stepper>
	</Control>
	<Globals>
		<Constants>
			<T>0</T>
			<R>0</R>
			<Fc>0</Fc>
		</Constants>
	</Globals>
	<Material>
		<material id="1" name="Ground" type="rigid body">
			<density>1</density>
			<center_of_mass>0,0,0</center_of_mass>
		</material>
		<material id="2" name="Cam" type="rigid body">
			<density>1</density>
		</material>
		<material id="3" name="Follower" type="rigid body">
			<density>1</density>
		</material>
	</Material>
	<Mesh>
		<Nodes name="Cam01">
			<node id="1">1.77127433e-14,-28.575,6</node>
			<node id="2">1.77127433e-14,-28.575,0</node>
			<node id="3">0,15.875,6</node>
			<node id="4">0,15.875,0</node>
			<node id="5">10,0,6</node>
			<node id="6">10,0,16</node>
			<node id="7">-10,1.2246468e-15,6</node>
			<node id="8">-10,1.2246468e-15,16</node>
			<node id="9">1.77127433e-14,-28.575,3.024</node>
			<node id="10">-3.028005,-28.4141129,6</node>
			<node id="11">-6.02191258,-27.9332632,6</node>
			<node id="12">-9.2219401,-27.0460061,6</node>
			<node id="13">-12.0359996,-25.9165071,6</node>
			<node id="14">-14.7144893,-24.4951089,6</node>
			<node id="15">-17.3831191,-22.6437783,6</node>
			<node id="16">-19.6014598,-20.5784752,6</node>
			<node id="17">-21.6650519,-17.8887482,6</node>
			<node id="18">-23.1599501,-14.9268806,6</node>
			<node id="19">-24.0252453,-11.9481873,6</node>
			<node id="20">-24.3475749,-8.35740572,6</node>
<!-- ... 1896 like lines cut -->
		</Nodes>
		<Nodes name="Ground">
			<node id="1917">10,0,6</node>
			<node id="1918">11.25,0,6</node>
			<node id="1919">12.5,0,6</node>
			<node id="1920">13.75,0,6</node>
			<node id="1921">15,0,6</node>
			<node id="1922">9.80785281,1.95090319,6</node>
			<node id="1923">11.0338344,2.19476609,6</node>
			<node id="1924">12.259816,2.43862898,6</node>
			<node id="1925">13.4857976,2.68249188,6</node>
			<node id="1926">14.7117792,2.92635478,6</node>
			<node id="1927">9.23879535,3.82683426,6</node>
			<node id="1928">10.3936448,4.30518854,6</node>
			<node id="1929">11.5484942,4.78354283,6</node>
			<node id="1930">12.7033436,5.26189711,6</node>
			<node id="1931">13.858193,5.74025139,6</node>
			<node id="1932">8.31469618,5.55570225,6</node>
			<node id="1933">9.3540332,6.25016503,6</node>
			<node id="1934">10.3933702,6.94462781,6</node>
			<node id="1935">11.4327072,7.63909059,6</node>
			<node id="1936">12.4720443,8.33355337,6</node>
<!-- ... 1420 like lines cut -->
		</Nodes>
		<Nodes name="Follower">
			<node id="3357">-30,15.875,0</node>
			<node id="3358">-30,15.875,6</node>
			<node id="3359">-30,17.875,0</node>
			<node id="3360">-30,17.875,6</node>
			<node id="3361">30,15.875,0</node>
			<node id="3362">30,15.875,6</node>
			<node id="3363">30,17.875,0</node>
			<node id="3364">30,17.875,6</node>
		</Nodes>
		<Elements type="tet10" name="Part1">
			<elem id="1">276,300,307,218,1214,1236,1235,1370,1372,1371</elem>
			<elem id="2">193,286,248,59,1374,1175,1373,812,1376,1375</elem>
			<elem id="3">141,140,50,282,533,573,574,1377,1378,1158</elem>
			<elem id="4">214,297,213,271,1379,1381,887,1380,1206,1382</elem>
			<elem id="5">316,286,58,346,1274,1385,1383,1384,1387,1386</elem>
			<elem id="6">269,228,212,125,1389,951,1388,1390,1392,1391</elem>
			<elem id="7">230,245,297,299,1016,1395,1393,1394,1396,1213</elem>
			<elem id="8">256,290,232,199,1184,1399,1397,1398,1400,965</elem>
			<elem id="9">55,311,281,191,1402,1249,1401,807,1404,1403</elem>
			<elem id="10">246,315,225,229,1405,1406,1033,1024,1407,1035</elem>
			<elem id="11">327,321,78,7,1306,1410,1408,1409,1411,426</elem>
			<elem id="12">330,5,231,288,1413,954,1412,1315,1415,1414</elem>
			<elem id="13">269,125,212,126,1390,1391,1388,1416,488,1417</elem>
			<elem id="14">313,346,317,62,1418,1420,1275,1419,1422,1421</elem>
			<elem id="15">269,126,212,270,1416,1417,1388,1122,1424,1423</elem>
			<elem id="16">78,321,340,333,1410,1359,1425,1426,1342,983</elem>
			<elem id="17">270,213,297,271,1427,1381,1207,1125,1382,1206</elem>
			<elem id="18">197,227,166,252,940,1430,1428,1429,1432,1431</elem>
			<elem id="19">188,333,78,340,1433,1426,800,1434,983,1425</elem>
			<elem id="20">316,344,317,346,1435,1436,1277,1384,1437,1420</elem>
<!-- ... 864 like lines cut -->
		</Elements>
		<Elements type="hex8" name="Part2">
			<elem id="885">1917,1918,1923,1922,2077,2078,2083,2082</elem>
			<elem id="886">1918,1919,1924,1923,2078,2079,2084,2083</elem>
			<elem id="887">1919,1920,1925,1924,2079,2080,2085,2084</elem>
			<elem id="888">1920,1921,1926,1925,2080,2081,2086,2085</elem>
			<elem id="889">1922,1923,1928,1927,2082,2083,2088,2087</elem>
			<elem id="890">1923,1924,1929,1928,2083,2084,2089,2088</elem>
			<elem id="891">1924,1925,1930,1929,2084,2085,2090,2089</elem>
			<elem id="892">1925,1926,1931,1930,2085,2086,2091,2090</elem>
			<elem id="893">1927,1928,1933,1932,2087,2088,2093,2092</elem>
			<elem id="894">1928,1929,1934,1933,2088,2089,2094,2093</elem>
			<elem id="895">1929,1930,1935,1934,2089,2090,2095,2094</elem>
			<elem id="896">1930,1931,1936,1935,2090,2091,2096,2095</elem>
			<elem id="897">1932,1933,1938,1937,2092,2093,2098,2097</elem>
			<elem id="898">1933,1934,1939,1938,2093,2094,2099,2098</elem>
			<elem id="899">1934,1935,1940,1939,2094,2095,2100,2099</elem>
			<elem id="900">1935,1936,1941,1940,2095,2096,2101,2100</elem>
			<elem id="901">1937,1938,1943,1942,2097,2098,2103,2102</elem>
			<elem id="902">1938,1939,1944,1943,2098,2099,2104,2103</elem>
			<elem id="903">1939,1940,1945,1944,2099,2100,2105,2104</elem>
			<elem id="904">1940,1941,1946,1945,2100,2101,2106,2105</elem>
<!-- ... 1004 like lines cut -->
		</Elements>
		<Elements type="hex8" name="Part3">
			<elem id="1909">3357,3361,3363,3359,3358,3362,3364,3360</elem>
		</Elements>
		<Surface name="Cam surface">
			<tri6 id="1">9,10,1,473,349,347</tri6>
			<tri6 id="2">2,32,9,373,474,348</tri6>
			<tri6 id="3">32,123,9,476,475,474</tri6>
			<tri6 id="4">33,123,32,477,476,374</tri6>
			<tri6 id="5">9,123,10,475,478,473</tri6>
			<tri6 id="6">10,123,11,478,479,350</tri6>
			<tri6 id="7">11,124,12,481,480,351</tri6>
			<tri6 id="8">11,123,124,479,482,481</tri6>
			<tri6 id="9">12,125,13,484,483,352</tri6>
			<tri6 id="10">12,124,125,480,485,484</tri6>
			<tri6 id="11">13,126,14,487,486,353</tri6>
			<tri6 id="12">13,125,126,483,488,487</tri6>
			<tri6 id="13">14,127,15,490,489,354</tri6>
			<tri6 id="14">14,126,127,486,491,490</tri6>
			<tri6 id="15">15,128,16,493,492,355</tri6>
			<tri6 id="16">15,127,128,489,494,493</tri6>
			<tri6 id="17">16,129,17,496,495,356</tri6>
			<tri6 id="18">16,128,129,492,497,496</tri6>
			<tri6 id="19">17,130,18,499,498,357</tri6>
			<tri6 id="20">17,129,130,495,500,499</tri6>
<!-- ... 160 like lines cut -->
		</Surface>
		<Surface name="Follower surface">
			<quad4 id="1">3357,3361,3362,3358</quad4>
		</Surface>
		<SurfacePair name="SlidingElasticContact1">
			<primary>Cam surface</primary>
			<secondary>Follower surface</secondary>
		</SurfacePair>
	</Mesh>
	<MeshDomains>
		<SolidDomain name="Part1" mat="Cam"/>
		<SolidDomain name="Part2" mat="Ground"/>
		<SolidDomain name="Part3" mat="Follower"/>
	</MeshDomains>
	<Boundary>
	</Boundary>
	<Rigid>
		<rigid_constraint name="Fixed Ground" type="fix">
			<rb>1</rb>
			<dofs>Rx,Ry,Rz,Ru,Rv,Rw</dofs>
		</rigid_constraint>
		<rigid_connector type="rigid revolute joint" name="Revolute Joint">
			<body_a>1</body_a>
			<body_b>2</body_b>
			<tolerance>0</tolerance>
			<gaptol>0.001</gaptol>
			<angtol>0.001</angtol>
			<force_penalty>1000</force_penalty>
			<moment_penalty>1000</moment_penalty>
			<auto_penalty>1</auto_penalty>
			<joint_origin>0,0,0</joint_origin>
			<rotation_axis>0,0,1</rotation_axis>
			<transverse_axis>1,0,0</transverse_axis>
			<minaug>0</minaug>
			<maxaug>10</maxaug>
			<prescribed_rotation>1</prescribed_rotation>
			<rotation lc="1">6.2832</rotation>
			<moment>0</moment>
		</rigid_connector>
		<rigid_connector type="rigid spring" name="Follower Spring">
			<body_a>1</body_a>
			<body_b>3</body_b>
			<k>10</k>
			<insertion_a>0,67.875,3</insertion_a>
			<insertion_b>0,17.875,3</insertion_b>
		</rigid_connector>
		<rigid_connector type="rigid prismatic joint" name="Prismatic Joint">
			<body_a>1</body_a>
			<body_b>3</body_b>
			<tolerance>0</tolerance>
			<gaptol>0.001</gaptol>
			<angtol>0.001</angtol>
			<force_penalty>1000</force_penalty>
			<moment_penalty>1000</moment_penalty>
			<auto_penalty>1</auto_penalty>
			<joint_origin>0,42.875,3</joint_origin>
			<translation_axis>0,1,0</translation_axis>
			<transverse_axis>0,0,1</transverse_axis>
			<minaug>0</minaug>
			<maxaug>10</maxaug>
			<prescribed_translation>0</prescribed_translation>
			<translation>0</translation>
			<force>0</force>
		</rigid_connector>
	</Rigid>
	<Contact>
		<contact type="sliding-elastic" name="SlidingElasticContact1" surface_pair="SlidingElasticContact1">
			<laugon>0</laugon>
			<tolerance>0.2</tolerance>
			<gaptol>0</gaptol>
			<penalty>100</penalty>
			<auto_penalty>0</auto_penalty>
			<two_pass>0</two_pass>
			<search_tol>0.01</search_tol>
			<symmetric_stiffness>0</symmetric_stiffness>
			<search_radius>1</search_radius>
			<seg_up>0</seg_up>
			<tension>0</tension>
			<minaug>0</minaug>
			<maxaug>10</maxaug>
			<fric_coeff>0</fric_coeff>
			<smooth_aug>0</smooth_aug>
			<node_reloc>0</node_reloc>
			<flip_primary>1</flip_primary>
			<flip_secondary>0</flip_secondary>
			<knmult>1</knmult>
			<update_penalty>0</update_penalty>
		</contact>
	</Contact>
	<LoadData>
		<load_controller id="1" type="loadcurve">
			<interpolate>LINEAR</interpolate>
			<extend>EXTRAPOLATE</extend>
			<points>
				<point>0,0</point>
				<point>1,1</point>
			</points>
		</load_controller>
	</LoadData>
	<Output>
		<plotfile type="febio">
			<var type="contact area"/>
			<var type="contact force"/>
			<var type="contact gap"/>
			<var type="contact pressure"/>
			<var type="displacement"/>
			<var type="relative volume"/>
			<var type="rigid angular position"/>
			<var type="rigid force"/>
			<var type="rigid position"/>
			<var type="rigid torque"/>
			<var type="stress"/>
		</plotfile>
	</Output>
</febio_spec>
