<?xml version="1.0" encoding="ISO-8859-1"?>
<!--
Contact with top and bottom faces of shells.

There are two contact interfaces, one for each cylindrical shell
contacting the rectangular shell.  The contact area on the
recangular shell was split to allow display of contact
pressure and contact gap on each half correctly.
-->
<febio_spec version="3.0">
	<Module type="solid"/>
	<Control>
		<analysis>STATIC</analysis>
		<time_steps>10000</time_steps>
		<step_size>0.0001</step_size>
		<solver>
			<max_refs>25</max_refs>
			<max_ups>0</max_ups>
			<diverge_reform>1</diverge_reform>
			<reform_each_time_step>1</reform_each_time_step>
			<dtol>0.001</dtol>
			<etol>0.01</etol>
			<rtol>0</rtol>
			<lstol>0.9</lstol>
			<min_residual>1e-20</min_residual>
			<qnmethod>BROYDEN</qnmethod>
			<rhoi>0</rhoi>
			<symmetric_stiffness>0</symmetric_stiffness>
		</solver>
		<time_stepper>
			<dtmin>1e-05</dtmin>
			<dtmax>0.01</dtmax>
			<max_retries>5</max_retries>
			<opt_iter>25</opt_iter>
		</time_stepper>
	</Control>
	<Globals>
		<Constants>
			<T>0</T>
			<R>0</R>
			<Fc>0</Fc>
		</Constants>
	</Globals>
	<Material>
		<material id="1" name="Material1" type="neo-Hookean">
			<density>1</density>
			<E>200</E>
			<v>0.3</v>
		</material>
		<material id="2" name="Material2" type="neo-Hookean">
			<density>1</density>
			<E>200</E>
			<v>0.3</v>
		</material>
	</Material>
	<Mesh>
		<Nodes name="Object01">
			<node id="1">-2,-0.5,0</node>
			<node id="2">-2,-0.4,0</node>
			<node id="3">-2,-0.3,0</node>
			<node id="4">-2,-0.2,0</node>
			<node id="5">-2,-0.1,0</node>
			<node id="6">-2,0,0</node>
			<node id="7">-2,0.1,0</node>
			<node id="8">-2,0.2,0</node>
			<node id="9">-2,0.3,0</node>
			<node id="10">-2,0.4,0</node>
			<node id="11">-2,0.5,0</node>
			<node id="12">-1.9,-0.5,0</node>
			<node id="13">-1.9,-0.4,0</node>
			<node id="14">-1.9,-0.3,0</node>
			<node id="15">-1.9,-0.2,0</node>
			<node id="16">-1.9,-0.1,0</node>
			<node id="17">-1.9,0,0</node>
			<node id="18">-1.9,0.1,0</node>
			<node id="19">-1.9,0.2,0</node>
			<node id="20">-1.9,0.3,0</node>
<!-- ... 1157 like lines cut -->
		</Nodes>
		<Elements type="quad4" name="Part1">
			<elem id="1">1,12,13,2</elem>
			<elem id="2">2,13,14,3</elem>
			<elem id="3">3,14,15,4</elem>
			<elem id="4">4,15,16,5</elem>
			<elem id="5">5,16,17,6</elem>
			<elem id="6">6,17,18,7</elem>
			<elem id="7">7,18,19,8</elem>
			<elem id="8">8,19,20,9</elem>
			<elem id="9">9,20,21,10</elem>
			<elem id="10">10,21,22,11</elem>
			<elem id="11">12,23,24,13</elem>
			<elem id="12">13,24,25,14</elem>
			<elem id="13">14,25,26,15</elem>
			<elem id="14">15,26,27,16</elem>
			<elem id="15">16,27,28,17</elem>
			<elem id="16">17,28,29,18</elem>
			<elem id="17">18,29,30,19</elem>
			<elem id="18">19,30,31,20</elem>
			<elem id="19">20,31,32,21</elem>
			<elem id="20">21,32,33,22</elem>
<!-- ... 380 like lines cut -->
		</Elements>
		<Elements type="quad4" name="Part5">
			<elem id="401">453,454,487,486</elem>
			<elem id="402">454,455,488,487</elem>
			<elem id="403">455,456,489,488</elem>
			<elem id="404">456,457,490,489</elem>
			<elem id="405">457,458,491,490</elem>
			<elem id="406">458,459,492,491</elem>
			<elem id="407">459,460,493,492</elem>
			<elem id="408">460,461,494,493</elem>
			<elem id="409">461,462,495,494</elem>
			<elem id="410">462,463,496,495</elem>
			<elem id="411">463,464,497,496</elem>
			<elem id="412">464,465,498,497</elem>
			<elem id="413">465,466,499,498</elem>
			<elem id="414">466,467,500,499</elem>
			<elem id="415">467,468,501,500</elem>
			<elem id="416">468,469,502,501</elem>
			<elem id="417">469,470,503,502</elem>
			<elem id="418">470,471,504,503</elem>
			<elem id="419">471,472,505,504</elem>
			<elem id="420">472,473,506,505</elem>
<!-- ... 300 like lines cut -->
		</Elements>
		<Elements type="quad4" name="Part6">
			<elem id="721">815,816,849,848</elem>
			<elem id="722">816,817,850,849</elem>
			<elem id="723">817,818,851,850</elem>
			<elem id="724">818,819,852,851</elem>
			<elem id="725">819,820,853,852</elem>
			<elem id="726">820,821,854,853</elem>
			<elem id="727">821,822,855,854</elem>
			<elem id="728">822,823,856,855</elem>
			<elem id="729">823,824,857,856</elem>
			<elem id="730">824,825,858,857</elem>
			<elem id="731">825,826,859,858</elem>
			<elem id="732">826,827,860,859</elem>
			<elem id="733">827,828,861,860</elem>
			<elem id="734">828,829,862,861</elem>
			<elem id="735">829,830,863,862</elem>
			<elem id="736">830,831,864,863</elem>
			<elem id="737">831,832,865,864</elem>
			<elem id="738">832,833,866,865</elem>
			<elem id="739">833,834,867,866</elem>
			<elem id="740">834,835,868,867</elem>
<!-- ... 300 like lines cut -->
		</Elements>
		<NodeSet name="FixedDisplacement1">
			<n id="1"/>
			<n id="2"/>
			<n id="3"/>
			<n id="4"/>
			<n id="5"/>
			<n id="6"/>
			<n id="7"/>
			<n id="8"/>
			<n id="9"/>
			<n id="10"/>
			<n id="11"/>
			<n id="441"/>
			<n id="442"/>
			<n id="443"/>
			<n id="444"/>
			<n id="445"/>
			<n id="446"/>
			<n id="447"/>
			<n id="448"/>
			<n id="449"/>
			<n id="450"/>
			<n id="451"/>
		</NodeSet>
		<NodeSet name="FixedShellDisplacement1">
			<n id="1"/>
			<n id="2"/>
			<n id="3"/>
			<n id="4"/>
			<n id="5"/>
			<n id="6"/>
			<n id="7"/>
			<n id="8"/>
			<n id="9"/>
			<n id="10"/>
			<n id="11"/>
			<n id="441"/>
			<n id="442"/>
			<n id="443"/>
			<n id="444"/>
			<n id="445"/>
			<n id="446"/>
			<n id="447"/>
			<n id="448"/>
			<n id="449"/>
			<n id="450"/>
			<n id="451"/>
		</NodeSet>
		<NodeSet name="FixedDisplacement2">
			<n id="452"/>
			<n id="453"/>
			<n id="485"/>
			<n id="486"/>
			<n id="518"/>
			<n id="519"/>
			<n id="551"/>
			<n id="552"/>
			<n id="584"/>
			<n id="585"/>
			<n id="617"/>
			<n id="618"/>
			<n id="650"/>
			<n id="651"/>
			<n id="683"/>
			<n id="684"/>
			<n id="716"/>
			<n id="717"/>
			<n id="749"/>
			<n id="750"/>
			<n id="782"/>
			<n id="783"/>
		</NodeSet>
		<NodeSet name="FixedShellDisplacement2">
			<n id="452"/>
			<n id="453"/>
			<n id="485"/>
			<n id="486"/>
			<n id="518"/>
			<n id="519"/>
			<n id="551"/>
			<n id="552"/>
			<n id="584"/>
			<n id="585"/>
			<n id="617"/>
			<n id="618"/>
			<n id="650"/>
			<n id="651"/>
			<n id="683"/>
			<n id="684"/>
			<n id="716"/>
			<n id="717"/>
			<n id="749"/>
			<n id="750"/>
			<n id="782"/>
			<n id="783"/>
		</NodeSet>
		<NodeSet name="FixedDisplacement3">
			<n id="815"/>
			<n id="847"/>
			<n id="848"/>
			<n id="880"/>
			<n id="881"/>
			<n id="913"/>
			<n id="914"/>
			<n id="946"/>
			<n id="947"/>
			<n id="979"/>
			<n id="980"/>
			<n id="1012"/>
			<n id="1013"/>
			<n id="1045"/>
			<n id="1046"/>
			<n id="1078"/>
			<n id="1079"/>
			<n id="1111"/>
			<n id="1112"/>
			<n id="1144"/>
			<n id="1145"/>
			<n id="1177"/>
		</NodeSet>
		<NodeSet name="FixedShellDisplacement3">
			<n id="815"/>
			<n id="847"/>
			<n id="848"/>
			<n id="880"/>
			<n id="881"/>
			<n id="913"/>
			<n id="914"/>
			<n id="946"/>
			<n id="947"/>
			<n id="979"/>
			<n id="980"/>
			<n id="1012"/>
			<n id="1013"/>
			<n id="1045"/>
			<n id="1046"/>
			<n id="1078"/>
			<n id="1079"/>
			<n id="1111"/>
			<n id="1112"/>
			<n id="1144"/>
			<n id="1145"/>
			<n id="1177"/>
		</NodeSet>
		<NodeSet name="PrescribedDisplacement1">
			<n id="452"/>
			<n id="453"/>
			<n id="485"/>
			<n id="486"/>
			<n id="518"/>
			<n id="519"/>
			<n id="551"/>
			<n id="552"/>
			<n id="584"/>
			<n id="585"/>
			<n id="617"/>
			<n id="618"/>
			<n id="650"/>
			<n id="651"/>
			<n id="683"/>
			<n id="684"/>
			<n id="716"/>
			<n id="717"/>
			<n id="749"/>
			<n id="750"/>
			<n id="782"/>
			<n id="783"/>
		</NodeSet>
		<NodeSet name="PrescribedShellDisplacement1">
			<n id="452"/>
			<n id="453"/>
			<n id="485"/>
			<n id="486"/>
			<n id="518"/>
			<n id="519"/>
			<n id="551"/>
			<n id="552"/>
			<n id="584"/>
			<n id="585"/>
			<n id="617"/>
			<n id="618"/>
			<n id="650"/>
			<n id="651"/>
			<n id="683"/>
			<n id="684"/>
			<n id="716"/>
			<n id="717"/>
			<n id="749"/>
			<n id="750"/>
			<n id="782"/>
			<n id="783"/>
		</NodeSet>
		<Surface name="Sliding-elasticContact1_primary">
			<quad4 id="1">1,12,13,2</quad4>
			<quad4 id="2">2,13,14,3</quad4>
			<quad4 id="3">3,14,15,4</quad4>
			<quad4 id="4">4,15,16,5</quad4>
			<quad4 id="5">5,16,17,6</quad4>
			<quad4 id="6">6,17,18,7</quad4>
			<quad4 id="7">7,18,19,8</quad4>
			<quad4 id="8">8,19,20,9</quad4>
			<quad4 id="9">9,20,21,10</quad4>
			<quad4 id="10">10,21,22,11</quad4>
			<quad4 id="11">12,23,24,13</quad4>
			<quad4 id="12">13,24,25,14</quad4>
			<quad4 id="13">14,25,26,15</quad4>
			<quad4 id="14">15,26,27,16</quad4>
			<quad4 id="15">16,27,28,17</quad4>
			<quad4 id="16">17,28,29,18</quad4>
			<quad4 id="17">18,29,30,19</quad4>
			<quad4 id="18">19,30,31,20</quad4>
			<quad4 id="19">20,31,32,21</quad4>
			<quad4 id="20">21,32,33,22</quad4>
<!-- ... 180 like lines cut -->
		</Surface>
		<Surface name="Sliding-elasticContact1_master">
			<quad4 id="1">453,454,487,486</quad4>
			<quad4 id="2">454,455,488,487</quad4>
			<quad4 id="3">455,456,489,488</quad4>
			<quad4 id="4">456,457,490,489</quad4>
			<quad4 id="5">457,458,491,490</quad4>
			<quad4 id="6">458,459,492,491</quad4>
			<quad4 id="7">459,460,493,492</quad4>
			<quad4 id="8">460,461,494,493</quad4>
			<quad4 id="9">461,462,495,494</quad4>
			<quad4 id="10">462,463,496,495</quad4>
			<quad4 id="11">463,464,497,496</quad4>
			<quad4 id="12">464,465,498,497</quad4>
			<quad4 id="13">465,466,499,498</quad4>
			<quad4 id="14">466,467,500,499</quad4>
			<quad4 id="15">467,468,501,500</quad4>
			<quad4 id="16">468,469,502,501</quad4>
			<quad4 id="17">469,470,503,502</quad4>
			<quad4 id="18">470,471,504,503</quad4>
			<quad4 id="19">471,472,505,504</quad4>
			<quad4 id="20">472,473,506,505</quad4>
<!-- ... 300 like lines cut -->
		</Surface>
		<Surface name="Sliding-elasticContact2_master">
			<quad4 id="1">815,816,849,848</quad4>
			<quad4 id="2">816,817,850,849</quad4>
			<quad4 id="3">817,818,851,850</quad4>
			<quad4 id="4">818,819,852,851</quad4>
			<quad4 id="5">819,820,853,852</quad4>
			<quad4 id="6">820,821,854,853</quad4>
			<quad4 id="7">821,822,855,854</quad4>
			<quad4 id="8">822,823,856,855</quad4>
			<quad4 id="9">823,824,857,856</quad4>
			<quad4 id="10">824,825,858,857</quad4>
			<quad4 id="11">825,826,859,858</quad4>
			<quad4 id="12">826,827,860,859</quad4>
			<quad4 id="13">827,828,861,860</quad4>
			<quad4 id="14">828,829,862,861</quad4>
			<quad4 id="15">829,830,863,862</quad4>
			<quad4 id="16">830,831,864,863</quad4>
			<quad4 id="17">831,832,865,864</quad4>
			<quad4 id="18">832,833,866,865</quad4>
			<quad4 id="19">833,834,867,866</quad4>
			<quad4 id="20">834,835,868,867</quad4>
<!-- ... 300 like lines cut -->
		</Surface>
		<Surface name="Sliding-elasticContact2_secondary">
			<quad4 id="1">221,232,233,222</quad4>
			<quad4 id="2">222,233,234,223</quad4>
			<quad4 id="3">223,234,235,224</quad4>
			<quad4 id="4">224,235,236,225</quad4>
			<quad4 id="5">225,236,237,226</quad4>
			<quad4 id="6">226,237,238,227</quad4>
			<quad4 id="7">227,238,239,228</quad4>
			<quad4 id="8">228,239,240,229</quad4>
			<quad4 id="9">229,240,241,230</quad4>
			<quad4 id="10">230,241,242,231</quad4>
			<quad4 id="11">232,243,244,233</quad4>
			<quad4 id="12">233,244,245,234</quad4>
			<quad4 id="13">234,245,246,235</quad4>
			<quad4 id="14">235,246,247,236</quad4>
			<quad4 id="15">236,247,248,237</quad4>
			<quad4 id="16">237,248,249,238</quad4>
			<quad4 id="17">238,249,250,239</quad4>
			<quad4 id="18">239,250,251,240</quad4>
			<quad4 id="19">240,251,252,241</quad4>
			<quad4 id="20">241,252,253,242</quad4>
<!-- ... 180 like lines cut -->
		</Surface>
		<SurfacePair name="Sliding-elasticContact1">
			<primary>Sliding-elasticContact1_primary</primary>
			<secondary>Sliding-elasticContact1_master</secondary>
		</SurfacePair>
		<SurfacePair name="Sliding-elasticContact2">
			<primary>Sliding-elasticContact2_master</primary>
			<secondary>Sliding-elasticContact2_secondary</secondary>
		</SurfacePair>
	</Mesh>
	<MeshDomains>
		<ShellDomain name="Part1" mat="Material1"/>
		<ShellDomain name="Part5" mat="Material2"/>
		<ShellDomain name="Part6" mat="Material2"/>
	</MeshDomains>
	<MeshData>
		<ElementData var="shell thickness" elem_set="Part1">
			<e lid="1">0.1,0.1,0.1,0.1</e>
			<e lid="2">0.1,0.1,0.1,0.1</e>
			<e lid="3">0.1,0.1,0.1,0.1</e>
			<e lid="4">0.1,0.1,0.1,0.1</e>
			<e lid="5">0.1,0.1,0.1,0.1</e>
			<e lid="6">0.1,0.1,0.1,0.1</e>
			<e lid="7">0.1,0.1,0.1,0.1</e>
			<e lid="8">0.1,0.1,0.1,0.1</e>
			<e lid="9">0.1,0.1,0.1,0.1</e>
			<e lid="10">0.1,0.1,0.1,0.1</e>
			<e lid="11">0.1,0.1,0.1,0.1</e>
			<e lid="12">0.1,0.1,0.1,0.1</e>
			<e lid="13">0.1,0.1,0.1,0.1</e>
			<e lid="14">0.1,0.1,0.1,0.1</e>
			<e lid="15">0.1,0.1,0.1,0.1</e>
			<e lid="16">0.1,0.1,0.1,0.1</e>
			<e lid="17">0.1,0.1,0.1,0.1</e>
			<e lid="18">0.1,0.1,0.1,0.1</e>
			<e lid="19">0.1,0.1,0.1,0.1</e>
			<e lid="20">0.1,0.1,0.1,0.1</e>
<!-- ... 380 like lines cut -->
		</ElementData>
		<ElementData var="shell thickness" elem_set="Part5">
			<e lid="1">0.1,0.1,0.1,0.1</e>
			<e lid="2">0.1,0.1,0.1,0.1</e>
			<e lid="3">0.1,0.1,0.1,0.1</e>
			<e lid="4">0.1,0.1,0.1,0.1</e>
			<e lid="5">0.1,0.1,0.1,0.1</e>
			<e lid="6">0.1,0.1,0.1,0.1</e>
			<e lid="7">0.1,0.1,0.1,0.1</e>
			<e lid="8">0.1,0.1,0.1,0.1</e>
			<e lid="9">0.1,0.1,0.1,0.1</e>
			<e lid="10">0.1,0.1,0.1,0.1</e>
			<e lid="11">0.1,0.1,0.1,0.1</e>
			<e lid="12">0.1,0.1,0.1,0.1</e>
			<e lid="13">0.1,0.1,0.1,0.1</e>
			<e lid="14">0.1,0.1,0.1,0.1</e>
			<e lid="15">0.1,0.1,0.1,0.1</e>
			<e lid="16">0.1,0.1,0.1,0.1</e>
			<e lid="17">0.1,0.1,0.1,0.1</e>
			<e lid="18">0.1,0.1,0.1,0.1</e>
			<e lid="19">0.1,0.1,0.1,0.1</e>
			<e lid="20">0.1,0.1,0.1,0.1</e>
<!-- ... 300 like lines cut -->
		</ElementData>
		<ElementData var="shell thickness" elem_set="Part6">
			<e lid="1">0.1,0.1,0.1,0.1</e>
			<e lid="2">0.1,0.1,0.1,0.1</e>
			<e lid="3">0.1,0.1,0.1,0.1</e>
			<e lid="4">0.1,0.1,0.1,0.1</e>
			<e lid="5">0.1,0.1,0.1,0.1</e>
			<e lid="6">0.1,0.1,0.1,0.1</e>
			<e lid="7">0.1,0.1,0.1,0.1</e>
			<e lid="8">0.1,0.1,0.1,0.1</e>
			<e lid="9">0.1,0.1,0.1,0.1</e>
			<e lid="10">0.1,0.1,0.1,0.1</e>
			<e lid="11">0.1,0.1,0.1,0.1</e>
			<e lid="12">0.1,0.1,0.1,0.1</e>
			<e lid="13">0.1,0.1,0.1,0.1</e>
			<e lid="14">0.1,0.1,0.1,0.1</e>
			<e lid="15">0.1,0.1,0.1,0.1</e>
			<e lid="16">0.1,0.1,0.1,0.1</e>
			<e lid="17">0.1,0.1,0.1,0.1</e>
			<e lid="18">0.1,0.1,0.1,0.1</e>
			<e lid="19">0.1,0.1,0.1,0.1</e>
			<e lid="20">0.1,0.1,0.1,0.1</e>
<!-- ... 300 like lines cut -->
		</ElementData>
	</MeshData>
	<Boundary>
		<bc name="FixedDisplacement01" type="fix" node_set="FixedDisplacement1">
			<dofs>x,y,z</dofs>
		</bc>
		<bc name="FixedShellDisplacement01" type="fix" node_set="FixedShellDisplacement1">
			<dofs>sx,sy,sz</dofs>
		</bc>
		<bc name="FixedDisplacement02" type="fix" node_set="FixedDisplacement2">
			<dofs>x,y</dofs>
		</bc>
		<bc name="FixedShellDisplacement02" type="fix" node_set="FixedShellDisplacement2">
			<dofs>sx,sy</dofs>
		</bc>
		<bc name="FixedDisplacement03" type="fix" node_set="FixedDisplacement3">
			<dofs>x,y</dofs>
		</bc>
		<bc name="FixedShellDisplacement03" type="fix" node_set="FixedShellDisplacement3">
			<dofs>sx,sy</dofs>
		</bc>
		<bc name="PrescribedDisplacement1" type="prescribe" node_set="PrescribedDisplacement1">
			<dof>z</dof>
			<scale lc="1">-0.5</scale>
			<relative>0</relative>
		</bc>
		<bc name="PrescribedShellDisplacement1" type="prescribe" node_set="PrescribedShellDisplacement1">
			<dof>sz</dof>
			<scale lc="2">-0.5</scale>
			<relative>0</relative>
		</bc>
		<bc name="FixedDisplacement3" type="prescribe" node_set="FixedDisplacement3">
			<dof>z</dof>
			<scale lc="3">0.5</scale>
			<relative>0</relative>
		</bc>
		<bc name="FixedShellDisplacement3" type="prescribe" node_set="FixedShellDisplacement3">
			<dof>sz</dof>
			<scale lc="4">0.5</scale>
			<relative>0</relative>
		</bc>
	</Boundary>
	<Contact>
		<contact type="sliding-elastic" name="Sliding-elasticContact1" surface_pair="Sliding-elasticContact1">
			<laugon>0</laugon>
			<tolerance>0.2</tolerance>
			<gaptol>0</gaptol>
			<penalty>10</penalty>
			<auto_penalty>1</auto_penalty>
			<two_pass>1</two_pass>
			<search_tol>0.01</search_tol>
			<symmetric_stiffness>0</symmetric_stiffness>
			<search_radius>0.02</search_radius>
			<seg_up>0</seg_up>
			<tension>0</tension>
			<minaug>0</minaug>
			<maxaug>10</maxaug>
			<fric_coeff>0</fric_coeff>
			<smooth_aug>0</smooth_aug>
			<node_reloc>0</node_reloc>
			<flip_primary>0</flip_primary>
			<flip_secondary>0</flip_secondary>
			<knmult>0</knmult>
			<update_penalty>0</update_penalty>
			<shell_bottom_primary>0</shell_bottom_primary>
			<shell_bottom_secondary>0</shell_bottom_secondary>
		</contact>
		<contact type="sliding-elastic" name="Sliding-elasticContact2" surface_pair="Sliding-elasticContact2">
			<laugon>0</laugon>
			<tolerance>0.2</tolerance>
			<gaptol>0</gaptol>
			<penalty>10</penalty>
			<auto_penalty>1</auto_penalty>
			<two_pass>1</two_pass>
			<search_tol>0.01</search_tol>
			<symmetric_stiffness>0</symmetric_stiffness>
			<search_radius>0.02</search_radius>
			<seg_up>0</seg_up>
			<tension>0</tension>
			<minaug>0</minaug>
			<maxaug>10</maxaug>
			<fric_coeff>0</fric_coeff>
			<smooth_aug>0</smooth_aug>
			<node_reloc>0</node_reloc>
			<flip_primary>0</flip_primary>
			<flip_secondary>0</flip_secondary>
			<knmult>0</knmult>
			<update_penalty>0</update_penalty>
			<shell_bottom_primary>0</shell_bottom_primary>
			<shell_bottom_secondary>1</shell_bottom_secondary>
		</contact>
	</Contact>
	<LoadData>
		<load_controller id="1" type="loadcurve">
			<interpolate>SMOOTH</interpolate>
			<points>
				<point>0,0</point>
				<point>1,1</point>
			</points>
		</load_controller>
		<load_controller id="2" type="loadcurve">
			<interpolate>SMOOTH</interpolate>
			<points>
				<point>0,0</point>
				<point>1,1</point>
			</points>
		</load_controller>
		<load_controller id="3" type="loadcurve">
			<interpolate>SMOOTH</interpolate>
			<points>
				<point>0,0</point>
				<point>1,1</point>
			</points>
		</load_controller>
		<load_controller id="4" type="loadcurve">
			<interpolate>SMOOTH</interpolate>
			<points>
				<point>0,0</point>
				<point>1,1</point>
			</points>
		</load_controller>
	</LoadData>
	<Output>
		<plotfile type="febio">
			<var type="contact force"/>
			<var type="contact gap"/>
			<var type="contact pressure"/>
			<var type="displacement"/>
			<var type="shell director"/>
			<var type="shell relative volume"/>
			<var type="shell strain"/>
			<var type="shell thickness"/>
			<var type="stress"/>
		</plotfile>
	</Output>
</febio_spec>
