<?xml version="1.0" encoding="ISO-8859-1"?>
<!--
Interstitial growth of engineered cartilage using chemical reactions that convert soluble sulfate ion
into solid-bound charged chondroitin sulfate (CS), based on the availability of glucose which is needed
for CS synthesis as well as cell metabolism. The tissue construct consists of a scaffold (modeled as a
solid porous matrix), cells (not modeled explicitly), the CS solid-bound molecule, and an interstitial
fluid containing Na+, Cl-, Mg++ and SO4-.  Two chemical reactions occur in this analysis:

Glucose Consumption:
[cells] + [glucose] -> [cells] + [waste products]

Chondroitin sulfate synthesis:
[cells] + [glucose] + [sulfate] -> [cells] + [chondroitin sulfate]

Cells and waste products are not modeled explicitly.  The [glucose] is modeled as a solute named "Glc",
the [sulfate] is modeled as a soluted named "SO4", and the [chondroitin sulfate] is modeled as a
solid-bound molecule named "CS".  The second chemical reaction explicitly enforces charge conservation
between reactants and products, exchanging two negative charges between SO4 and CS.  The initial CS
concentration is zero.  The analysis domain is a cylindrical disk, modeled as a wedge to take advantage
of axisymmetry.  Fixed glucose, NaCl and MgSO4 concentrations are prescribed on the top and lateral
boundaries, whereas the bottom boundary is impermeable to all solutes and solvent.  Over time, CS is
deposited throughout the disk, increasing its fixed charge density and causing it to swell due to the
resulting Donnan osmotic pressure.  Since CS deposition is dependent on the availability of Glc, and
since Glc concentration is non-uniform due to competitive diffusion-consumption effects, the CS
deposition and construct swelling also become inhomogeneous.
-->
<febio_spec version="3.0">
	<Module type="multiphasic"/>
	<Control>
		<analysis>TRANSIENT</analysis>
		<time_steps>101</time_steps>
		<step_size>36000</step_size>
		<solver>
			<max_refs>25</max_refs>
			<max_ups>0</max_ups>
			<diverge_reform>1</diverge_reform>
			<reform_each_time_step>1</reform_each_time_step>
			<dtol>0.001</dtol>
			<etol>0</etol>
			<rtol>0</rtol>
			<ptol>0</ptol>
			<ctol>0.01</ctol>
			<lstol>0.9</lstol>
			<min_residual>1e-20</min_residual>
			<qnmethod>BROYDEN</qnmethod>
			<symmetric_stiffness>0</symmetric_stiffness>
		</solver>
		<time_stepper>
			<dtmin>1</dtmin>
			<dtmax>36000</dtmax>
			<max_retries>5</max_retries>
			<opt_iter>25</opt_iter>
		</time_stepper>
	</Control>
	<Globals>
		<Constants>
			<T>310</T>
			<R>8.314</R>
			<Fc>96.485</Fc>
		</Constants>
		<Solutes>
			<solute id="1" name="Na">
				<charge_number>1</charge_number>
				<molar_mass>2.3e-08</molar_mass>
				<density>0.00097</density>
			</solute>
			<solute id="2" name="Cl">
				<charge_number>-1</charge_number>
				<molar_mass>3.55e-08</molar_mass>
				<density>0.00321</density>
			</solute>
			<solute id="3" name="Mg">
				<charge_number>2</charge_number>
				<molar_mass>2.43e-08</molar_mass>
				<density>0.001738</density>
			</solute>
			<solute id="4" name="SO4">
				<charge_number>-2</charge_number>
				<molar_mass>9.61e-08</molar_mass>
				<density>0.003</density>
			</solute>
			<solute id="5" name="Glc">
				<charge_number>0</charge_number>
				<molar_mass>1.8e-07</molar_mass>
				<density>0.00154</density>
			</solute>
		</Solutes>
		<SolidBoundMolecules>
			<solid_bound id="1" name="CS">
				<charge_number>-2</charge_number>
				<molar_mass>5.18e-07</molar_mass>
				<density>0.001</density>
			</solid_bound>
			<solid_bound id="2" name="col">
				<charge_number>0</charge_number>
				<molar_mass>0.0003</molar_mass>
				<density>0.001</density>
			</solid_bound>
		</SolidBoundMolecules>
	</Globals>
	<Material>
		<material id="1" name="Material2" type="multiphasic">
			<phi0>0.02</phi0>
			<fixed_charge_density>0</fixed_charge_density>
			<solid type="neo-Hookean">
				<density>1</density>
				<E>12000</E>
				<v>0</v>
			</solid>
			<permeability type="perm-const-iso">
				<perm>1e-07</perm>
			</permeability>
			<osmotic_coefficient type="osm-coef-const">
				<osmcoef>1</osmcoef>
			</osmotic_coefficient>
			<solute sol="1">
				<diffusivity type="diff-const-iso">
					<free_diff>0.0006</free_diff>
					<diff>0.0005</diff>
				</diffusivity>
				<solubility type="solub-const">
					<solub>1</solub>
				</solubility>
			</solute>
			<solute sol="2">
				<diffusivity type="diff-const-iso">
					<free_diff>0.0006</free_diff>
					<diff>0.0005</diff>
				</diffusivity>
				<solubility type="solub-const">
					<solub>1</solub>
				</solubility>
			</solute>
			<solute sol="3">
				<diffusivity type="diff-const-iso">
					<free_diff>0.0006</free_diff>
					<diff>0.0005</diff>
				</diffusivity>
				<solubility type="solub-const">
					<solub>1</solub>
				</solubility>
			</solute>
			<solute sol="4">
				<diffusivity type="diff-const-iso">
					<free_diff>0.0006</free_diff>
					<diff>0.0005</diff>
				</diffusivity>
				<solubility type="solub-const">
					<solub>1</solub>
				</solubility>
			</solute>
			<solute sol="5">
				<diffusivity type="diff-const-iso">
					<free_diff>0.0006</free_diff>
					<diff>0.0005</diff>
				</diffusivity>
				<solubility type="solub-const">
					<solub>1</solub>
				</solubility>
			</solute>
			<solid_bound sbm="1">
				<rho0>0</rho0>
				<rhomin>0</rhomin>
				<rhomax>0</rhomax>
			</solid_bound>
			<solid_bound sbm="2">
				<rho0>0</rho0>
				<rhomin>0</rhomin>
				<rhomax>0</rhomax>
			</solid_bound>
			<reaction name="Glucose consumption" type="mass-action-forward">
				<Vbar>0</Vbar>
				<forward_rate type="constant reaction rate">
					<k>4e-05</k>
				</forward_rate>
				<vR sol="5">1</vR>
			</reaction>
			<reaction name="CS synthesis" type="mass-action-forward">
				<Vbar>0</Vbar>
				<forward_rate type="constant reaction rate">
					<k>1e-07</k>
				</forward_rate>
				<vR sol="4">1</vR>
				<vR sol="5">1</vR>
				<vP sbm="1">1</vP>
			</reaction>
		</material>
		<material id="2" name="Symmetry Plane" type="rigid body">
			<density>1</density>
			<center_of_mass>0,0,0</center_of_mass>
		</material>
	</Material>
	<Mesh>
		<Nodes name="Object01">
			<node id="1">-9.9862953,-0.52335969,-5</node>
			<node id="2">-9.9862954,-0.52335942,5</node>
			<node id="3">9.9862954,0.52335942,-5</node>
			<node id="4">9.9862953,0.52335969,5</node>
			<node id="5">0,0,0</node>
			<node id="6">0.5,0,0</node>
			<node id="7">0.49931477,0.026167978,0</node>
			<node id="8">1,0,0</node>
			<node id="9">0.99862953,0.052335955,0</node>
			<node id="10">1.5,0,0</node>
			<node id="11">1.4979443,0.078503933,0</node>
			<node id="12">2,0,0</node>
			<node id="13">1.9972591,0.10467191,0</node>
			<node id="14">2.5,0,0</node>
			<node id="15">2.4965738,0.13083989,0</node>
			<node id="16">3,0,0</node>
			<node id="17">2.9958886,0.15700787,0</node>
			<node id="18">3.5,0,0</node>
			<node id="19">3.4952034,0.18317584,0</node>
			<node id="20">4,0,0</node>
<!-- ... 89 like lines cut -->
		</Nodes>
		<Elements type="penta6" name="Part1">
			<elem id="1">5,6,7,26,27,28</elem>
			<elem id="2">26,27,28,47,48,49</elem>
			<elem id="3">47,48,49,68,69,70</elem>
			<elem id="4">68,69,70,89,90,91</elem>
		</Elements>
		<Elements type="hex8" name="Part1(2)">
			<elem id="5">6,8,9,7,27,29,30,28</elem>
			<elem id="6">8,10,11,9,29,31,32,30</elem>
			<elem id="7">10,12,13,11,31,33,34,32</elem>
			<elem id="8">12,14,15,13,33,35,36,34</elem>
			<elem id="9">14,16,17,15,35,37,38,36</elem>
			<elem id="10">16,18,19,17,37,39,40,38</elem>
			<elem id="11">18,20,21,19,39,41,42,40</elem>
			<elem id="12">20,22,23,21,41,43,44,42</elem>
			<elem id="13">22,24,25,23,43,45,46,44</elem>
			<elem id="14">27,29,30,28,48,50,51,49</elem>
			<elem id="15">29,31,32,30,50,52,53,51</elem>
			<elem id="16">31,33,34,32,52,54,55,53</elem>
			<elem id="17">33,35,36,34,54,56,57,55</elem>
			<elem id="18">35,37,38,36,56,58,59,57</elem>
			<elem id="19">37,39,40,38,58,60,61,59</elem>
			<elem id="20">39,41,42,40,60,62,63,61</elem>
			<elem id="21">41,43,44,42,62,64,65,63</elem>
			<elem id="22">43,45,46,44,64,66,67,65</elem>
			<elem id="23">48,50,51,49,69,71,72,70</elem>
			<elem id="24">50,52,53,51,71,73,74,72</elem>
<!-- ... 16 like lines cut -->
		</Elements>
		<Elements type="quad4" name="Part2">
			<elem id="41">1,3,4,2</elem>
		</Elements>
		<NodeSet name="FixedNodeset01">
			<n id="5"/>
			<n id="6"/>
			<n id="8"/>
			<n id="10"/>
			<n id="12"/>
			<n id="14"/>
			<n id="16"/>
			<n id="18"/>
			<n id="20"/>
			<n id="22"/>
			<n id="24"/>
			<n id="26"/>
			<n id="27"/>
			<n id="29"/>
			<n id="31"/>
			<n id="33"/>
			<n id="35"/>
			<n id="37"/>
			<n id="39"/>
			<n id="41"/>
<!-- ... 35 like lines cut -->
		</NodeSet>
		<NodeSet name="FixedNodeset02">
			<n id="5"/>
			<n id="6"/>
			<n id="7"/>
			<n id="8"/>
			<n id="9"/>
			<n id="10"/>
			<n id="11"/>
			<n id="12"/>
			<n id="13"/>
			<n id="14"/>
			<n id="15"/>
			<n id="16"/>
			<n id="17"/>
			<n id="18"/>
			<n id="19"/>
			<n id="20"/>
			<n id="21"/>
			<n id="22"/>
			<n id="23"/>
			<n id="24"/>
			<n id="25"/>
		</NodeSet>
		<NodeSet name="FixedNodeset03">
			<n id="5"/>
			<n id="26"/>
			<n id="47"/>
			<n id="68"/>
			<n id="89"/>
		</NodeSet>
		<NodeSet name="FixedNodeset04">
			<n id="5"/>
			<n id="26"/>
			<n id="47"/>
			<n id="68"/>
			<n id="89"/>
		</NodeSet>
		<NodeSet name="Nodeset01">
			<n id="24"/>
			<n id="25"/>
			<n id="45"/>
			<n id="46"/>
			<n id="66"/>
			<n id="67"/>
			<n id="87"/>
			<n id="88"/>
			<n id="89"/>
			<n id="90"/>
			<n id="91"/>
			<n id="92"/>
			<n id="93"/>
			<n id="94"/>
			<n id="95"/>
			<n id="96"/>
			<n id="97"/>
			<n id="98"/>
			<n id="99"/>
			<n id="100"/>
<!-- ... 9 like lines cut -->
		</NodeSet>
		<NodeSet name="Nodeset02">
			<n id="24"/>
			<n id="25"/>
			<n id="45"/>
			<n id="46"/>
			<n id="66"/>
			<n id="67"/>
			<n id="87"/>
			<n id="88"/>
			<n id="89"/>
			<n id="90"/>
			<n id="91"/>
			<n id="92"/>
			<n id="93"/>
			<n id="94"/>
			<n id="95"/>
			<n id="96"/>
			<n id="97"/>
			<n id="98"/>
			<n id="99"/>
			<n id="100"/>
<!-- ... 9 like lines cut -->
		</NodeSet>
		<NodeSet name="Nodeset03">
			<n id="24"/>
			<n id="25"/>
			<n id="45"/>
			<n id="46"/>
			<n id="66"/>
			<n id="67"/>
			<n id="87"/>
			<n id="88"/>
			<n id="89"/>
			<n id="90"/>
			<n id="91"/>
			<n id="92"/>
			<n id="93"/>
			<n id="94"/>
			<n id="95"/>
			<n id="96"/>
			<n id="97"/>
			<n id="98"/>
			<n id="99"/>
			<n id="100"/>
<!-- ... 9 like lines cut -->
		</NodeSet>
		<NodeSet name="Nodeset04">
			<n id="24"/>
			<n id="25"/>
			<n id="45"/>
			<n id="46"/>
			<n id="66"/>
			<n id="67"/>
			<n id="87"/>
			<n id="88"/>
			<n id="89"/>
			<n id="90"/>
			<n id="91"/>
			<n id="92"/>
			<n id="93"/>
			<n id="94"/>
			<n id="95"/>
			<n id="96"/>
			<n id="97"/>
			<n id="98"/>
			<n id="99"/>
			<n id="100"/>
<!-- ... 9 like lines cut -->
		</NodeSet>
		<NodeSet name="Nodeset05">
			<n id="24"/>
			<n id="25"/>
			<n id="45"/>
			<n id="46"/>
			<n id="66"/>
			<n id="67"/>
			<n id="87"/>
			<n id="88"/>
			<n id="89"/>
			<n id="90"/>
			<n id="91"/>
			<n id="92"/>
			<n id="93"/>
			<n id="94"/>
			<n id="95"/>
			<n id="96"/>
			<n id="97"/>
			<n id="98"/>
			<n id="99"/>
			<n id="100"/>
<!-- ... 9 like lines cut -->
		</NodeSet>
		<NodeSet name="Nodeset06">
			<n id="24"/>
			<n id="25"/>
			<n id="45"/>
			<n id="46"/>
			<n id="66"/>
			<n id="67"/>
			<n id="87"/>
			<n id="88"/>
			<n id="89"/>
			<n id="90"/>
			<n id="91"/>
			<n id="92"/>
			<n id="93"/>
			<n id="94"/>
			<n id="95"/>
			<n id="96"/>
			<n id="97"/>
			<n id="98"/>
			<n id="99"/>
			<n id="100"/>
<!-- ... 9 like lines cut -->
		</NodeSet>
		<NodeSet name="InitialConcentration01">
			<n id="5"/>
			<n id="6"/>
			<n id="7"/>
			<n id="8"/>
			<n id="9"/>
			<n id="10"/>
			<n id="11"/>
			<n id="12"/>
			<n id="13"/>
			<n id="14"/>
			<n id="15"/>
			<n id="16"/>
			<n id="17"/>
			<n id="18"/>
			<n id="19"/>
			<n id="20"/>
			<n id="21"/>
			<n id="22"/>
			<n id="23"/>
			<n id="24"/>
<!-- ... 85 like lines cut -->
		</NodeSet>
		<NodeSet name="InitialConcentration01">
			<n id="5"/>
			<n id="6"/>
			<n id="7"/>
			<n id="8"/>
			<n id="9"/>
			<n id="10"/>
			<n id="11"/>
			<n id="12"/>
			<n id="13"/>
			<n id="14"/>
			<n id="15"/>
			<n id="16"/>
			<n id="17"/>
			<n id="18"/>
			<n id="19"/>
			<n id="20"/>
			<n id="21"/>
			<n id="22"/>
			<n id="23"/>
			<n id="24"/>
<!-- ... 85 like lines cut -->
		</NodeSet>
		<NodeSet name="InitialConcentration01">
			<n id="5"/>
			<n id="6"/>
			<n id="7"/>
			<n id="8"/>
			<n id="9"/>
			<n id="10"/>
			<n id="11"/>
			<n id="12"/>
			<n id="13"/>
			<n id="14"/>
			<n id="15"/>
			<n id="16"/>
			<n id="17"/>
			<n id="18"/>
			<n id="19"/>
			<n id="20"/>
			<n id="21"/>
			<n id="22"/>
			<n id="23"/>
			<n id="24"/>
<!-- ... 85 like lines cut -->
		</NodeSet>
		<NodeSet name="InitialConcentration01">
			<n id="5"/>
			<n id="6"/>
			<n id="7"/>
			<n id="8"/>
			<n id="9"/>
			<n id="10"/>
			<n id="11"/>
			<n id="12"/>
			<n id="13"/>
			<n id="14"/>
			<n id="15"/>
			<n id="16"/>
			<n id="17"/>
			<n id="18"/>
			<n id="19"/>
			<n id="20"/>
			<n id="21"/>
			<n id="22"/>
			<n id="23"/>
			<n id="24"/>
<!-- ... 85 like lines cut -->
		</NodeSet>
		<NodeSet name="InitialConcentration01">
			<n id="5"/>
			<n id="6"/>
			<n id="7"/>
			<n id="8"/>
			<n id="9"/>
			<n id="10"/>
			<n id="11"/>
			<n id="12"/>
			<n id="13"/>
			<n id="14"/>
			<n id="15"/>
			<n id="16"/>
			<n id="17"/>
			<n id="18"/>
			<n id="19"/>
			<n id="20"/>
			<n id="21"/>
			<n id="22"/>
			<n id="23"/>
			<n id="24"/>
<!-- ... 85 like lines cut -->
		</NodeSet>
		<NodeSet name="InitialFluidPressure01">
			<n id="5"/>
			<n id="6"/>
			<n id="7"/>
			<n id="8"/>
			<n id="9"/>
			<n id="10"/>
			<n id="11"/>
			<n id="12"/>
			<n id="13"/>
			<n id="14"/>
			<n id="15"/>
			<n id="16"/>
			<n id="17"/>
			<n id="18"/>
			<n id="19"/>
			<n id="20"/>
			<n id="21"/>
			<n id="22"/>
			<n id="23"/>
			<n id="24"/>
<!-- ... 85 like lines cut -->
		</NodeSet>
		<Surface name="PrimarySurface01">
			<quad4 id="1">5,26,28,7</quad4>
			<quad4 id="2">9,7,28,30</quad4>
			<quad4 id="3">11,9,30,32</quad4>
			<quad4 id="4">13,11,32,34</quad4>
			<quad4 id="5">15,13,34,36</quad4>
			<quad4 id="6">17,15,36,38</quad4>
			<quad4 id="7">19,17,38,40</quad4>
			<quad4 id="8">21,19,40,42</quad4>
			<quad4 id="9">23,21,42,44</quad4>
			<quad4 id="10">25,23,44,46</quad4>
			<quad4 id="11">26,47,49,28</quad4>
			<quad4 id="12">30,28,49,51</quad4>
			<quad4 id="13">32,30,51,53</quad4>
			<quad4 id="14">34,32,53,55</quad4>
			<quad4 id="15">36,34,55,57</quad4>
			<quad4 id="16">38,36,57,59</quad4>
			<quad4 id="17">40,38,59,61</quad4>
			<quad4 id="18">42,40,61,63</quad4>
			<quad4 id="19">44,42,63,65</quad4>
			<quad4 id="20">46,44,65,67</quad4>
<!-- ... 20 like lines cut -->
		</Surface>
		<Surface name="SecondarySurface01">
			<quad4 id="1">1,3,4,2</quad4>
		</Surface>
		<ElementSet name="unnamed_set01">
			<e id="40"/>
		</ElementSet>
		<SurfacePair name="TCInterface01">
			<primary>PrimarySurface01</primary>
			<secondary>SecondarySurface01</secondary>
		</SurfacePair>
	</Mesh>
	<MeshDomains>
		<SolidDomain name="Part1" mat="Material2"/>
		<SolidDomain name="Part1(2)" mat="Material2"/>
		<ShellDomain name="Part2" mat="Symmetry Plane"/>
	</MeshDomains>
	<MeshData>
		<ElementData var="shell thickness" elem_set="Part2">
			<e lid="1">0.01,0.01,0.01,0.01</e>
		</ElementData>
	</MeshData>
	<Boundary>
		<bc name="FixedDisplacement01" type="fix" node_set="FixedNodeset01">
			<dofs>y</dofs>
		</bc>
		<bc name="FixedDisplacement02" type="fix" node_set="FixedNodeset02">
			<dofs>z</dofs>
		</bc>
		<bc name="FixedDisplacement03" type="fix" node_set="FixedNodeset03">
			<dofs>y</dofs>
		</bc>
		<bc name="FixedDisplacement04" type="fix" node_set="FixedNodeset04">
			<dofs>x</dofs>
		</bc>
		<bc name="Nodeset01" type="prescribe" node_set="Nodeset01">
			<dof>p</dof>
			<scale lc="1">1</scale>
			<relative>0</relative>
		</bc>
		<bc name="Nodeset02" type="prescribe" node_set="Nodeset02">
			<dof>c1</dof>
			<scale lc="2">1</scale>
			<relative>0</relative>
		</bc>
		<bc name="Nodeset03" type="prescribe" node_set="Nodeset03">
			<dof>c2</dof>
			<scale lc="3">1</scale>
			<relative>0</relative>
		</bc>
		<bc name="Nodeset04" type="prescribe" node_set="Nodeset04">
			<dof>c3</dof>
			<scale lc="4">1</scale>
			<relative>0</relative>
		</bc>
		<bc name="Nodeset05" type="prescribe" node_set="Nodeset05">
			<dof>c4</dof>
			<scale lc="5">1</scale>
			<relative>0</relative>
		</bc>
		<bc name="Nodeset06" type="prescribe" node_set="Nodeset06">
			<dof>c5</dof>
			<scale lc="6">1</scale>
			<relative>0</relative>
		</bc>
	</Boundary>
	<Rigid>
		<rigid_constraint name="RigidFixed57" type="fix">
			<rb>2</rb>
			<dofs>Rx,Ry,Rz,Ru,Rv,Rw</dofs>
		</rigid_constraint>
	</Rigid>
	<Contact>
		<contact type="sliding-elastic" name="TCInterface01" surface_pair="TCInterface01">
			<laugon>0</laugon>
			<tolerance>0.2</tolerance>
			<gaptol>0</gaptol>
			<penalty>10000</penalty>
			<auto_penalty>1</auto_penalty>
			<two_pass>0</two_pass>
			<search_tol>0.01</search_tol>
			<symmetric_stiffness>0</symmetric_stiffness>
			<search_radius>1</search_radius>
			<seg_up>0</seg_up>
			<tension>1</tension>
			<minaug>0</minaug>
			<maxaug>10</maxaug>
			<fric_coeff>0</fric_coeff>
			<smooth_aug>0</smooth_aug>
			<node_reloc>0</node_reloc>
			<flip_primary>0</flip_primary>
			<flip_secondary>0</flip_secondary>
			<knmult>0</knmult>
			<update_penalty>0</update_penalty>
		</contact>
	</Contact>
	<Initial>
		<ic type="init_dof" node_set="InitialConcentration01">
			<dof>c1</dof>
			<value>145</value>
		</ic>
		<ic type="init_dof" node_set="InitialConcentration01">
			<dof>c2</dof>
			<value>145</value>
		</ic>
		<ic type="init_dof" node_set="InitialConcentration01">
			<dof>c3</dof>
			<value>5</value>
		</ic>
		<ic type="init_dof" node_set="InitialConcentration01">
			<dof>c4</dof>
			<value>5</value>
		</ic>
		<ic type="init_dof" node_set="InitialConcentration01">
			<dof>c5</dof>
			<value>25</value>
		</ic>
		<ic type="init_dof" node_set="InitialFluidPressure01">
			<dof>p</dof>
			<value>-837636</value>
		</ic>
	</Initial>
	<LoadData>
		<load_controller id="1" type="loadcurve">
			<interpolate>STEP</interpolate>
			<points>
				<point>0,0</point>
				<point>1,-837636</point>
			</points>
		</load_controller>
		<load_controller id="2" type="loadcurve">
			<interpolate>STEP</interpolate>
			<points>
				<point>0,0</point>
				<point>1,145</point>
			</points>
		</load_controller>
		<load_controller id="3" type="loadcurve">
			<interpolate>STEP</interpolate>
			<points>
				<point>0,0</point>
				<point>1,145</point>
			</points>
		</load_controller>
		<load_controller id="4" type="loadcurve">
			<interpolate>STEP</interpolate>
			<points>
				<point>0,0</point>
				<point>1,5</point>
			</points>
		</load_controller>
		<load_controller id="5" type="loadcurve">
			<interpolate>STEP</interpolate>
			<points>
				<point>0,0</point>
				<point>1,5</point>
			</points>
		</load_controller>
		<load_controller id="6" type="loadcurve">
			<interpolate>STEP</interpolate>
			<points>
				<point>0,0</point>
				<point>1,25</point>
			</points>
		</load_controller>
	</LoadData>
	<Output>
		<plotfile type="febio">
			<var type="contact force"/>
			<var type="contact gap"/>
			<var type="contact pressure"/>
			<var type="current density"/>
			<var type="displacement"/>
			<var type="reaction forces"/>
			<var type="relative volume"/>
			<var type="stress"/>
			<var type="velocity"/>
			<var type="effective fluid pressure"/>
			<var type="fluid pressure"/>
			<var type="fluid flux"/>
			<var type="referential solid volume fraction"/>
			<var type="effective solute concentration"/>
			<var type="electric potential"/>
			<var type="fixed charge density"/>
			<var type="referential fixed charge density"/>
			<var type="sbm referential apparent density"/>
			<var type="sbm concentration"/>
			<var type="solute concentration"/>
			<var type="solute flux"/>
		</plotfile>
		<logfile>
			<element_data data="c1" elem_set="unnamed_set01"/>
		</logfile>
	</Output>
</febio_spec>
