<?xml version="1.0" encoding="ISO-8859-1"?>
<!--
One-dimensional analysis of interstitial growth where the net reaction molar volume is not zero.  This analysis models the chemical reaction

[nutrient] -> [solid]

where the molar volume of the solid is different from that of the nutrient.  The [nutrient] is not modeled explicitly, whereas the [solid] product is modeled as a solid-bound molecule.The 1D analysis is performed on a cube of height h=1.  The multiphasic material consists of a solid and a fluid phase (no explicit solutes).  The top surface of the cube is traction-free and free-draining.  Continuou
-->
<febio_spec version="3.0">
	<Module type="multiphasic"/>
	<Control>
		<analysis>TRANSIENT</analysis>
		<time_steps>3000</time_steps>
		<step_size>0.001</step_size>
		<solver>
			<max_refs>15</max_refs>
			<max_ups>0</max_ups>
			<diverge_reform>1</diverge_reform>
			<reform_each_time_step>1</reform_each_time_step>
			<dtol>0.001</dtol>
			<etol>0.01</etol>
			<rtol>0</rtol>
			<ptol>0.01</ptol>
			<ctol>0.01</ctol>
			<lstol>0.9</lstol>
			<min_residual>1e-20</min_residual>
			<qnmethod>BROYDEN</qnmethod>
			<symmetric_stiffness>0</symmetric_stiffness>
		</solver>
		<time_stepper>
			<dtmin>0.0001</dtmin>
			<dtmax>0.01</dtmax>
			<max_retries>5</max_retries>
			<opt_iter>10</opt_iter>
		</time_stepper>
	</Control>
	<Globals>
		<Constants>
			<T>293</T>
			<R>8.314e-06</R>
			<Fc>9.65e-05</Fc>
		</Constants>
		<Solutes>
			<solute id="1" name="nutrient">
				<charge_number>0</charge_number>
				<molar_mass>1</molar_mass>
				<density>1</density>
			</solute>
		</Solutes>
		<SolidBoundMolecules>
			<solid_bound id="1" name="solid">
				<charge_number>0</charge_number>
				<molar_mass>1</molar_mass>
				<density>1</density>
			</solid_bound>
		</SolidBoundMolecules>
	</Globals>
	<Material>
		<material id="1" name="Tissue" type="multiphasic">
			<phi0>0</phi0>
			<fixed_charge_density>0</fixed_charge_density>
			<solid type="neo-Hookean">
				<density>1</density>
				<E>1</E>
				<v>0</v>
			</solid>
			<permeability type="perm-const-iso">
				<perm>1</perm>
			</permeability>
			<osmotic_coefficient type="osm-coef-const">
				<osmcoef>1</osmcoef>
			</osmotic_coefficient>
			<solid_bound sbm="1">
				<rho0>0</rho0>
				<rhomin>0</rhomin>
				<rhomax>0</rhomax>
			</solid_bound>
			<reaction name="volumetric growth" type="mass-action-forward">
				<Vbar>1</Vbar>
				<forward_rate type="constant reaction rate">
					<k>0.001</k>
				</forward_rate>
				<vP sbm="1">1</vP>
			</reaction>
		</material>
	</Material>
	<Mesh>
		<Nodes name="Object01">
			<node id="1">-0.5,-0.5,0</node>
			<node id="2">-0.5,-0.5,0.12264939</node>
			<node id="3">-0.5,-0.5,0.23058085</node>
			<node id="4">-0.5,-0.5,0.32556054</node>
			<node id="5">-0.5,-0.5,0.40914266</node>
			<node id="6">-0.5,-0.5,0.48269493</node>
			<node id="7">-0.5,-0.5,0.54742092</node>
			<node id="8">-0.5,-0.5,0.6043798</node>
			<node id="9">-0.5,-0.5,0.65450361</node>
			<node id="10">-0.5,-0.5,0.69861257</node>
			<node id="11">-0.5,-0.5,0.73742845</node>
			<node id="12">-0.5,-0.5,0.77158642</node>
			<node id="13">-0.5,-0.5,0.80164544</node>
			<node id="14">-0.5,-0.5,0.82809737</node>
			<node id="15">-0.5,-0.5,0.85137508</node>
			<node id="16">-0.5,-0.5,0.87185946</node>
			<node id="17">-0.5,-0.5,0.88988571</node>
			<node id="18">-0.5,-0.5,0.90574881</node>
			<node id="19">-0.5,-0.5,0.91970834</node>
			<node id="20">-0.5,-0.5,0.93199273</node>
<!-- ... 104 like lines cut -->
		</Nodes>
		<Elements type="hex8" name="Part1">
			<elem id="1">1,63,94,32,2,64,95,33</elem>
			<elem id="2">2,64,95,33,3,65,96,34</elem>
			<elem id="3">3,65,96,34,4,66,97,35</elem>
			<elem id="4">4,66,97,35,5,67,98,36</elem>
			<elem id="5">5,67,98,36,6,68,99,37</elem>
			<elem id="6">6,68,99,37,7,69,100,38</elem>
			<elem id="7">7,69,100,38,8,70,101,39</elem>
			<elem id="8">8,70,101,39,9,71,102,40</elem>
			<elem id="9">9,71,102,40,10,72,103,41</elem>
			<elem id="10">10,72,103,41,11,73,104,42</elem>
			<elem id="11">11,73,104,42,12,74,105,43</elem>
			<elem id="12">12,74,105,43,13,75,106,44</elem>
			<elem id="13">13,75,106,44,14,76,107,45</elem>
			<elem id="14">14,76,107,45,15,77,108,46</elem>
			<elem id="15">15,77,108,46,16,78,109,47</elem>
			<elem id="16">16,78,109,47,17,79,110,48</elem>
			<elem id="17">17,79,110,48,18,80,111,49</elem>
			<elem id="18">18,80,111,49,19,81,112,50</elem>
			<elem id="19">19,81,112,50,20,82,113,51</elem>
			<elem id="20">20,82,113,51,21,83,114,52</elem>
<!-- ... 10 like lines cut -->
		</Elements>
		<NodeSet name="FixedDisplacement01">
			<n id="1"/>
			<n id="2"/>
			<n id="3"/>
			<n id="4"/>
			<n id="5"/>
			<n id="6"/>
			<n id="7"/>
			<n id="8"/>
			<n id="9"/>
			<n id="10"/>
			<n id="11"/>
			<n id="12"/>
			<n id="13"/>
			<n id="14"/>
			<n id="15"/>
			<n id="16"/>
			<n id="17"/>
			<n id="18"/>
			<n id="19"/>
			<n id="20"/>
<!-- ... 104 like lines cut -->
		</NodeSet>
		<NodeSet name="FixedDisplacement02">
			<n id="1"/>
			<n id="2"/>
			<n id="3"/>
			<n id="4"/>
			<n id="5"/>
			<n id="6"/>
			<n id="7"/>
			<n id="8"/>
			<n id="9"/>
			<n id="10"/>
			<n id="11"/>
			<n id="12"/>
			<n id="13"/>
			<n id="14"/>
			<n id="15"/>
			<n id="16"/>
			<n id="17"/>
			<n id="18"/>
			<n id="19"/>
			<n id="20"/>
<!-- ... 104 like lines cut -->
		</NodeSet>
		<NodeSet name="FixedDisplacement03">
			<n id="1"/>
			<n id="32"/>
			<n id="63"/>
			<n id="94"/>
		</NodeSet>
		<NodeSet name="FixedFluidPressure01">
			<n id="31"/>
			<n id="62"/>
			<n id="93"/>
			<n id="124"/>
		</NodeSet>
		<ElementSet name="unnamed_set01">
			<e id="7"/>
		</ElementSet>
	</Mesh>
	<MeshDomains>
		<SolidDomain name="Part1" mat="Tissue"/>
	</MeshDomains>
	<Boundary>
		<bc name="FixedDisplacement01" type="fix" node_set="FixedDisplacement01">
			<dofs>x</dofs>
		</bc>
		<bc name="FixedDisplacement02" type="fix" node_set="FixedDisplacement02">
			<dofs>y</dofs>
		</bc>
		<bc name="FixedDisplacement03" type="fix" node_set="FixedDisplacement03">
			<dofs>z</dofs>
		</bc>
		<bc name="FixedFluidPressure01" type="fix" node_set="FixedFluidPressure01">
			<dofs>p</dofs>
		</bc>
	</Boundary>
	<Output>
		<plotfile type="febio">
			<var type="density"/>
			<var type="displacement"/>
			<var type="relative volume"/>
			<var type="stress"/>
			<var type="velocity"/>
			<var type="effective fluid pressure"/>
			<var type="fluid pressure"/>
			<var type="fluid flux"/>
			<var type="referential solid volume fraction"/>
			<var type="sbm concentration"/>
		</plotfile>
		<logfile>
			<element_data data="wz" elem_set="unnamed_set01"/>
		</logfile>
	</Output>
</febio_spec>
