<?xml version="1.0" encoding="ISO-8859-1"?>
<febio_spec version="3.0">
	<Module type="solid"/>
	<Control>
		<analysis>STATIC</analysis>
		<time_steps>10</time_steps>
		<step_size>0.1</step_size>
		<solver>
			<max_refs>15</max_refs>
			<max_ups>10</max_ups>
			<diverge_reform>1</diverge_reform>
			<reform_each_time_step>1</reform_each_time_step>
			<dtol>0.001</dtol>
			<etol>0.01</etol>
			<rtol>0</rtol>
			<lstol>0.9</lstol>
			<min_residual>1e-20</min_residual>
			<qnmethod>BFGS</qnmethod>
			<rhoi>-2</rhoi>
		</solver>
	</Control>
	<Globals>
		<Constants>
			<T>0</T>
			<R>0</R>
			<Fc>0</Fc>
		</Constants>
	</Globals>
	<Material>
		<material id="1" name="Material 1" type="neo-Hookean">
			<density>1</density>
			<E>100</E>
			<v>0.45</v>
		</material>
	</Material>
	<Mesh>
		<Nodes name="Object01">
			<node id="1">0.8,0,0</node>
			<node id="2">0.85,0,0</node>
			<node id="3">0.9,0,0</node>
			<node id="4">0.95,0,0</node>
			<node id="5">1,0,0</node>
			<node id="6">0.78462822,0.15607225,0</node>
			<node id="7">0.83366749,0.16582677,0</node>
			<node id="8">0.88270675,0.17558129,0</node>
			<node id="9">0.93174602,0.1853358,0</node>
			<node id="10">0.98078528,0.19509032,0</node>
			<node id="11">0.73910363,0.30614674,0</node>
			<node id="12">0.7852976,0.32528091,0</node>
			<node id="13">0.83149158,0.34441508,0</node>
			<node id="14">0.87768556,0.36354925,0</node>
			<node id="15">0.92387954,0.38268343,0</node>
			<node id="16">0.66517569,0.44445618,0</node>
			<node id="17">0.70674918,0.47223469,0</node>
			<node id="18">0.74832266,0.5000132,0</node>
			<node id="19">0.78989614,0.52779171,0</node>
			<node id="20">0.83146962,0.55557022,0</node>
<!-- ... 620 like lines cut -->
		</Nodes>
		<Elements type="hex8" name="Part3">
			<elem id="1">1,2,7,6,161,162,167,166</elem>
			<elem id="2">2,3,8,7,162,163,168,167</elem>
			<elem id="3">3,4,9,8,163,164,169,168</elem>
			<elem id="4">4,5,10,9,164,165,170,169</elem>
			<elem id="5">6,7,12,11,166,167,172,171</elem>
			<elem id="6">7,8,13,12,167,168,173,172</elem>
			<elem id="7">8,9,14,13,168,169,174,173</elem>
			<elem id="8">9,10,15,14,169,170,175,174</elem>
			<elem id="9">11,12,17,16,171,172,177,176</elem>
			<elem id="10">12,13,18,17,172,173,178,177</elem>
			<elem id="11">13,14,19,18,173,174,179,178</elem>
			<elem id="12">14,15,20,19,174,175,180,179</elem>
			<elem id="13">16,17,22,21,176,177,182,181</elem>
			<elem id="14">17,18,23,22,177,178,183,182</elem>
			<elem id="15">18,19,24,23,178,179,184,183</elem>
			<elem id="16">19,20,25,24,179,180,185,184</elem>
			<elem id="17">21,22,27,26,181,182,187,186</elem>
			<elem id="18">22,23,28,27,182,183,188,187</elem>
			<elem id="19">23,24,29,28,183,184,189,188</elem>
			<elem id="20">24,25,30,29,184,185,190,189</elem>
<!-- ... 236 like lines cut -->
		</Elements>
		<NodeSet name="FixedDisplacement01">
			<n id="5"/>
			<n id="10"/>
			<n id="15"/>
			<n id="20"/>
			<n id="25"/>
			<n id="30"/>
			<n id="35"/>
			<n id="40"/>
			<n id="45"/>
			<n id="50"/>
			<n id="55"/>
			<n id="60"/>
			<n id="65"/>
			<n id="70"/>
			<n id="75"/>
			<n id="80"/>
			<n id="85"/>
			<n id="90"/>
			<n id="95"/>
			<n id="100"/>
<!-- ... 44 like lines cut -->
		</NodeSet>
		<NodeSet name="FixedDisplacement02">
			<n id="5"/>
			<n id="10"/>
			<n id="15"/>
			<n id="20"/>
			<n id="25"/>
			<n id="30"/>
			<n id="35"/>
			<n id="40"/>
			<n id="45"/>
			<n id="50"/>
			<n id="55"/>
			<n id="60"/>
			<n id="65"/>
			<n id="70"/>
			<n id="75"/>
			<n id="80"/>
			<n id="85"/>
			<n id="90"/>
			<n id="95"/>
			<n id="100"/>
<!-- ... 44 like lines cut -->
		</NodeSet>
		<NodeSet name="FixedDisplacement03">
			<n id="5"/>
			<n id="10"/>
			<n id="15"/>
			<n id="20"/>
			<n id="25"/>
			<n id="30"/>
			<n id="35"/>
			<n id="40"/>
			<n id="45"/>
			<n id="50"/>
			<n id="55"/>
			<n id="60"/>
			<n id="65"/>
			<n id="70"/>
			<n id="75"/>
			<n id="80"/>
			<n id="85"/>
			<n id="90"/>
			<n id="95"/>
			<n id="100"/>
<!-- ... 44 like lines cut -->
		</NodeSet>
		<NodeSet name="FixedDisplacement04">
			<n id="321"/>
			<n id="326"/>
			<n id="331"/>
			<n id="336"/>
			<n id="341"/>
			<n id="346"/>
			<n id="351"/>
			<n id="356"/>
			<n id="361"/>
			<n id="366"/>
			<n id="371"/>
			<n id="376"/>
			<n id="381"/>
			<n id="386"/>
			<n id="391"/>
			<n id="396"/>
			<n id="401"/>
			<n id="406"/>
			<n id="411"/>
			<n id="416"/>
<!-- ... 44 like lines cut -->
		</NodeSet>
		<NodeSet name="FixedDisplacement05">
			<n id="321"/>
			<n id="326"/>
			<n id="331"/>
			<n id="336"/>
			<n id="341"/>
			<n id="346"/>
			<n id="351"/>
			<n id="356"/>
			<n id="361"/>
			<n id="366"/>
			<n id="371"/>
			<n id="376"/>
			<n id="381"/>
			<n id="386"/>
			<n id="391"/>
			<n id="396"/>
			<n id="401"/>
			<n id="406"/>
			<n id="411"/>
			<n id="416"/>
<!-- ... 44 like lines cut -->
		</NodeSet>
		<NodeSet name="PrescribedBC88">
			<n id="321"/>
			<n id="326"/>
			<n id="331"/>
			<n id="336"/>
			<n id="341"/>
			<n id="346"/>
			<n id="351"/>
			<n id="356"/>
			<n id="361"/>
			<n id="366"/>
			<n id="371"/>
			<n id="376"/>
			<n id="381"/>
			<n id="386"/>
			<n id="391"/>
			<n id="396"/>
			<n id="401"/>
			<n id="406"/>
			<n id="411"/>
			<n id="416"/>
<!-- ... 44 like lines cut -->
		</NodeSet>
		<ElementSet name="unnamed_set01">
			<e id="228"/>
		</ElementSet>
		<DiscreteSet name="Spring01">
			<delem>81,405</delem>
		</DiscreteSet>
		<DiscreteSet name="Spring02">
			<delem>445,121</delem>
		</DiscreteSet>
		<DiscreteSet name="Spring03">
			<delem>325,1</delem>
		</DiscreteSet>
		<DiscreteSet name="Spring04">
			<delem>365,41</delem>
		</DiscreteSet>
	</Mesh>
	<MeshDomains>
		<SolidDomain name="Part3" mat="Material 1"/>
	</MeshDomains>
	<Boundary>
		<bc name="FixedDisplacement01" type="fix" node_set="FixedDisplacement01">
			<dofs>z</dofs>
		</bc>
		<bc name="FixedDisplacement02" type="fix" node_set="FixedDisplacement02">
			<dofs>y</dofs>
		</bc>
		<bc name="FixedDisplacement03" type="fix" node_set="FixedDisplacement03">
			<dofs>x</dofs>
		</bc>
		<bc name="FixedDisplacement04" type="fix" node_set="FixedDisplacement04">
			<dofs>y</dofs>
		</bc>
		<bc name="FixedDisplacement05" type="fix" node_set="FixedDisplacement05">
			<dofs>x</dofs>
		</bc>
		<bc name="PrescribedBC88" type="prescribe" node_set="PrescribedBC88">
			<dof>z</dof>
			<scale lc="1">1</scale>
			<relative>0</relative>
		</bc>
	</Boundary>
	<Discrete>
		<discrete_material id="1" name="Spring01" type="nonlinear spring">
			<force lc="2">1</force>
		</discrete_material>
		<discrete_material id="2" name="Spring02" type="nonlinear spring">
			<force lc="3">2</force>
		</discrete_material>
		<discrete_material id="3" name="Spring03" type="nonlinear spring">
			<force lc="4">1</force>
		</discrete_material>
		<discrete_material id="4" name="Spring04" type="nonlinear spring">
			<force lc="5">2</force>
		</discrete_material>
		<discrete dmat="1" discrete_set="Spring01"/>
		<discrete dmat="2" discrete_set="Spring02"/>
		<discrete dmat="3" discrete_set="Spring03"/>
		<discrete dmat="4" discrete_set="Spring04"/>
	</Discrete>
	<LoadData>
		<load_controller id="1" type="loadcurve">
			<interpolate>SMOOTH</interpolate>
			<points>
				<point>0,0</point>
				<point>1,0.8</point>
			</points>
		</load_controller>
		<load_controller id="2" type="loadcurve">
			<interpolate>SMOOTH</interpolate>
			<points>
				<point>-1,-1</point>
				<point>0,0</point>
				<point>1,2</point>
			</points>
		</load_controller>
		<load_controller id="3" type="loadcurve">
			<interpolate>SMOOTH</interpolate>
			<points>
				<point>-1,-1</point>
				<point>0,0</point>
				<point>1,2</point>
			</points>
		</load_controller>
		<load_controller id="4" type="loadcurve">
			<interpolate>SMOOTH</interpolate>
			<points>
				<point>-1,-1</point>
				<point>0,0</point>
				<point>1,2</point>
			</points>
		</load_controller>
		<load_controller id="5" type="loadcurve">
			<interpolate>SMOOTH</interpolate>
			<points>
				<point>-1,-1</point>
				<point>0,0</point>
				<point>1,2</point>
			</points>
		</load_controller>
	</LoadData>
	<Output>
		<plotfile type="febio">
			<var type="displacement"/>
			<var type="stress"/>
		</plotfile>
		<logfile>
			<element_data data="sz" elem_set="unnamed_set01"/>
		</logfile>
	</Output>
</febio_spec>
