<?xml version="1.0" encoding="ISO-8859-1"?>
<!--
Two balls have a constant body force of 1 unit in the z-direction and bounce off of
each other and a rigid horizontal wall.  Note that the rigid body horizontal wall is
only there to visulalize the rigid-wall contact.

The penalty values of 10000 were necessary in order to reduce the penetration.  Facet to
fact contact converges somewhat faster than sliding_with_gaps, but the penetration is
is better with the latter.
-->
<febio_spec version="3.0">
	<Module type="solid"/>
	<Control>
		<analysis>DYNAMIC</analysis>
		<time_steps>40</time_steps>
		<step_size>0.1</step_size>
		<solver>
			<max_refs>15</max_refs>
			<max_ups>10</max_ups>
			<diverge_reform>1</diverge_reform>
			<reform_each_time_step>1</reform_each_time_step>
			<dtol>0.001</dtol>
			<etol>0.01</etol>
			<rtol>0</rtol>
			<lstol>0.9</lstol>
			<min_residual>1e-20</min_residual>
			<qnmethod>BFGS</qnmethod>
			<rhoi>-2</rhoi>
			<alpha>1</alpha>
			<beta>0.25</beta>
			<gamma>0.5</gamma>
		</solver>
		<time_stepper>
			<dtmin>0.01</dtmin>
			<dtmax lc="1"></dtmax>
			<max_retries>5</max_retries>
			<opt_iter>100</opt_iter>
		</time_stepper>
	</Control>
	<Globals>
		<Constants>
			<T>0</T>
			<R>0</R>
			<Fc>0</Fc>
		</Constants>
	</Globals>
	<Material>
		<material id="1" name="Material 5" type="neo-Hookean">
			<density>1</density>
			<E>500</E>
			<v>0.3</v>
		</material>
		<material id="2" name="Material 6" type="rigid body">
			<density>1</density>
		</material>
		<material id="3" name="Material 7" type="neo-Hookean">
			<density>1</density>
			<E>500</E>
			<v>0.3</v>
		</material>
	</Material>
	<Mesh>
		<Nodes name="Object01">
			<node id="1">-10,-10,-0.01</node>
			<node id="2">-10,-10,0</node>
			<node id="3">-10,10,-0.01</node>
			<node id="4">-10,10,0</node>
			<node id="5">10,-10,-0.01</node>
			<node id="6">10,-10,0</node>
			<node id="7">10,10,-0.01</node>
			<node id="8">10,10,0</node>
			<node id="9">-0.35355339,-0.35355339,1.6464466</node>
			<node id="10">-0.15909902,-0.35355339,1.6464466</node>
			<node id="11">0,-0.35355339,1.6464466</node>
			<node id="12">0.15909902,-0.35355339,1.6464466</node>
			<node id="13">0.35355339,-0.35355339,1.6464466</node>
			<node id="14">-0.35355339,-0.15909902,1.6464466</node>
			<node id="15">-0.15909902,-0.15909902,1.6464466</node>
			<node id="16">0,-0.15909902,1.6464466</node>
			<node id="17">0.15909902,-0.15909902,1.6464466</node>
			<node id="18">0.35355339,-0.15909902,1.6464466</node>
			<node id="19">-0.35355339,0,1.6464466</node>
			<node id="20">-0.15909902,0,1.6464466</node>
<!-- ... 1022 like lines cut -->
		</Nodes>
		<Elements type="hex8" name="Part1">
			<elem id="1">9,10,15,14,34,35,40,39</elem>
			<elem id="2">10,11,16,15,35,36,41,40</elem>
			<elem id="3">11,12,17,16,36,37,42,41</elem>
			<elem id="4">12,13,18,17,37,38,43,42</elem>
			<elem id="5">14,15,20,19,39,40,45,44</elem>
			<elem id="6">15,16,21,20,40,41,46,45</elem>
			<elem id="7">16,17,22,21,41,42,47,46</elem>
			<elem id="8">17,18,23,22,42,43,48,47</elem>
			<elem id="9">19,20,25,24,44,45,50,49</elem>
			<elem id="10">20,21,26,25,45,46,51,50</elem>
			<elem id="11">21,22,27,26,46,47,52,51</elem>
			<elem id="12">22,23,28,27,47,48,53,52</elem>
			<elem id="13">24,25,30,29,49,50,55,54</elem>
			<elem id="14">25,26,31,30,50,51,56,55</elem>
			<elem id="15">26,27,32,31,51,52,57,56</elem>
			<elem id="16">27,28,33,32,52,53,58,57</elem>
			<elem id="17">34,35,40,39,59,60,65,64</elem>
			<elem id="18">35,36,41,40,60,61,66,65</elem>
			<elem id="19">36,37,42,41,61,62,67,66</elem>
			<elem id="20">37,38,43,42,62,63,68,67</elem>
<!-- ... 428 like lines cut -->
		</Elements>
		<Elements type="hex8" name="Part2">
			<elem id="449">1,5,7,3,2,6,8,4</elem>
		</Elements>
		<Elements type="hex8" name="Part3">
			<elem id="450">526,527,532,531,551,552,557,556</elem>
			<elem id="451">527,528,533,532,552,553,558,557</elem>
			<elem id="452">528,529,534,533,553,554,559,558</elem>
			<elem id="453">529,530,535,534,554,555,560,559</elem>
			<elem id="454">531,532,537,536,556,557,562,561</elem>
			<elem id="455">532,533,538,537,557,558,563,562</elem>
			<elem id="456">533,534,539,538,558,559,564,563</elem>
			<elem id="457">534,535,540,539,559,560,565,564</elem>
			<elem id="458">536,537,542,541,561,562,567,566</elem>
			<elem id="459">537,538,543,542,562,563,568,567</elem>
			<elem id="460">538,539,544,543,563,564,569,568</elem>
			<elem id="461">539,540,545,544,564,565,570,569</elem>
			<elem id="462">541,542,547,546,566,567,572,571</elem>
			<elem id="463">542,543,548,547,567,568,573,572</elem>
			<elem id="464">543,544,549,548,568,569,574,573</elem>
			<elem id="465">544,545,550,549,569,570,575,574</elem>
			<elem id="466">551,552,557,556,576,577,582,581</elem>
			<elem id="467">552,553,558,557,577,578,583,582</elem>
			<elem id="468">553,554,559,558,578,579,584,583</elem>
			<elem id="469">554,555,560,559,579,580,585,584</elem>
<!-- ... 428 like lines cut -->
		</Elements>
		<Surface name="PrimarySurface01">
			<quad4 id="1">474,469,485,490</quad4>
			<quad4 id="2">469,470,486,485</quad4>
			<quad4 id="3">470,471,487,486</quad4>
			<quad4 id="4">471,472,488,487</quad4>
			<quad4 id="5">473,475,491,489</quad4>
			<quad4 id="6">472,473,489,488</quad4>
			<quad4 id="7">476,474,490,492</quad4>
			<quad4 id="8">475,477,493,491</quad4>
			<quad4 id="9">478,476,492,494</quad4>
			<quad4 id="10">477,479,495,493</quad4>
			<quad4 id="11">480,478,494,496</quad4>
			<quad4 id="12">481,480,496,497</quad4>
			<quad4 id="13">482,481,497,498</quad4>
			<quad4 id="14">483,482,498,499</quad4>
			<quad4 id="15">479,484,500,495</quad4>
			<quad4 id="16">484,483,499,500</quad4>
			<quad4 id="17">490,485,501,506</quad4>
			<quad4 id="18">485,486,502,501</quad4>
			<quad4 id="19">501,502,507,506</quad4>
			<quad4 id="20">486,487,503,502</quad4>
<!-- ... 28 like lines cut -->
		</Surface>
		<Surface name="SecondarySurface01">
			<quad4 id="1">950,945,970,975</quad4>
			<quad4 id="2">945,946,971,970</quad4>
			<quad4 id="3">950,951,946,945</quad4>
			<quad4 id="4">946,947,972,971</quad4>
			<quad4 id="5">951,952,947,946</quad4>
			<quad4 id="6">947,948,973,972</quad4>
			<quad4 id="7">952,953,948,947</quad4>
			<quad4 id="8">949,954,976,974</quad4>
			<quad4 id="9">948,949,974,973</quad4>
			<quad4 id="10">953,954,949,948</quad4>
			<quad4 id="11">955,950,975,977</quad4>
			<quad4 id="12">955,956,951,950</quad4>
			<quad4 id="13">956,957,952,951</quad4>
			<quad4 id="14">957,958,953,952</quad4>
			<quad4 id="15">954,959,978,976</quad4>
			<quad4 id="16">958,959,954,953</quad4>
			<quad4 id="17">960,955,977,979</quad4>
			<quad4 id="18">960,961,956,955</quad4>
			<quad4 id="19">961,962,957,956</quad4>
			<quad4 id="20">962,963,958,957</quad4>
<!-- ... 28 like lines cut -->
		</Surface>
		<Surface name="RigidWall01">
			<quad4 id="1">433,428,453,458</quad4>
			<quad4 id="2">428,429,454,453</quad4>
			<quad4 id="3">433,434,429,428</quad4>
			<quad4 id="4">429,430,455,454</quad4>
			<quad4 id="5">434,435,430,429</quad4>
			<quad4 id="6">430,431,456,455</quad4>
			<quad4 id="7">435,436,431,430</quad4>
			<quad4 id="8">432,437,459,457</quad4>
			<quad4 id="9">431,432,457,456</quad4>
			<quad4 id="10">436,437,432,431</quad4>
			<quad4 id="11">438,433,458,460</quad4>
			<quad4 id="12">438,439,434,433</quad4>
			<quad4 id="13">439,440,435,434</quad4>
			<quad4 id="14">440,441,436,435</quad4>
			<quad4 id="15">437,442,461,459</quad4>
			<quad4 id="16">441,442,437,436</quad4>
			<quad4 id="17">443,438,460,462</quad4>
			<quad4 id="18">443,444,439,438</quad4>
			<quad4 id="19">444,445,440,439</quad4>
			<quad4 id="20">445,446,441,440</quad4>
<!-- ... 28 like lines cut -->
		</Surface>
		<Surface name="RigidWall02">
			<quad4 id="1">950,945,970,975</quad4>
			<quad4 id="2">945,946,971,970</quad4>
			<quad4 id="3">950,951,946,945</quad4>
			<quad4 id="4">946,947,972,971</quad4>
			<quad4 id="5">951,952,947,946</quad4>
			<quad4 id="6">947,948,973,972</quad4>
			<quad4 id="7">952,953,948,947</quad4>
			<quad4 id="8">949,954,976,974</quad4>
			<quad4 id="9">948,949,974,973</quad4>
			<quad4 id="10">953,954,949,948</quad4>
			<quad4 id="11">955,950,975,977</quad4>
			<quad4 id="12">955,956,951,950</quad4>
			<quad4 id="13">956,957,952,951</quad4>
			<quad4 id="14">957,958,953,952</quad4>
			<quad4 id="15">954,959,978,976</quad4>
			<quad4 id="16">958,959,954,953</quad4>
			<quad4 id="17">960,955,977,979</quad4>
			<quad4 id="18">960,961,956,955</quad4>
			<quad4 id="19">961,962,957,956</quad4>
			<quad4 id="20">962,963,958,957</quad4>
<!-- ... 28 like lines cut -->
		</Surface>
		<ElementSet name="unnamed_set01">
			<e id="426"/>
		</ElementSet>
		<SurfacePair name="SlidingInterface01">
			<primary>PrimarySurface01</primary>
			<secondary>SecondarySurface01</secondary>
		</SurfacePair>
	</Mesh>
	<MeshDomains>
		<SolidDomain name="Part1" mat="Material 5"/>
		<SolidDomain name="Part2" mat="Material 6"/>
		<SolidDomain name="Part3" mat="Material 7"/>
	</MeshDomains>
	<Boundary>
	</Boundary>
	<Rigid>
		<rigid_constraint name="RigidFixed59" type="fix">
			<rb>2</rb>
			<dofs>Rx,Ry,Rz,Ru,Rv,Rw</dofs>
		</rigid_constraint>
	</Rigid>
	<Loads>
		<body_load type="const">
			<x lc="2">0</x>
			<y lc="3">0</y>
			<z lc="4">1</z>
		</body_load>
	</Loads>
	<Contact>
		<contact type="sliding-node-on-facet" name="SlidingInterface01" surface_pair="SlidingInterface01">
			<laugon>0</laugon>
			<tolerance>0.01</tolerance>
			<penalty>10000</penalty>
			<two_pass>1</two_pass>
			<auto_penalty>0</auto_penalty>
			<fric_coeff>0</fric_coeff>
			<fric_penalty>0</fric_penalty>
			<search_tol>0.01</search_tol>
			<minaug>0</minaug>
			<maxaug>10</maxaug>
			<gaptol>0</gaptol>
			<seg_up>0</seg_up>
			<update_penalty>0</update_penalty>
		</contact>
		<contact type="rigid_wall" name="RigidWall01" surface="RigidWall01">
			<laugon>0</laugon>
			<tolerance>0.01</tolerance>
			<penalty>10000</penalty>
			<offset lc="5">0</offset>
			<plane>0,0,1,0</plane>
		</contact>
		<contact type="rigid_wall" name="RigidWall02" surface="RigidWall02">
			<laugon>0</laugon>
			<tolerance>0.01</tolerance>
			<penalty>10000</penalty>
			<offset lc="6">0</offset>
			<plane>0,0,1,0</plane>
		</contact>
	</Contact>
	<LoadData>
		<load_controller id="1" type="loadcurve">
			<interpolate>STEP</interpolate>
			<points>
				<point>0,1</point>
				<point>1.9,0.1</point>
			</points>
		</load_controller>
		<load_controller id="2" type="loadcurve">
			<interpolate>SMOOTH</interpolate>
			<points>
				<point>0,0</point>
				<point>1,1</point>
			</points>
		</load_controller>
		<load_controller id="3" type="loadcurve">
			<interpolate>SMOOTH</interpolate>
			<points>
				<point>0,0</point>
				<point>1,1</point>
			</points>
		</load_controller>
		<load_controller id="4" type="loadcurve">
			<interpolate>LINEAR</interpolate>
			<points>
				<point>0,1</point>
				<point>1,1</point>
			</points>
		</load_controller>
		<load_controller id="5" type="loadcurve">
			<interpolate>SMOOTH</interpolate>
			<points>
				<point>0,0</point>
				<point>1,0</point>
			</points>
		</load_controller>
		<load_controller id="6" type="loadcurve">
			<interpolate>SMOOTH</interpolate>
			<points>
				<point>0,0</point>
				<point>1,0</point>
			</points>
		</load_controller>
	</LoadData>
	<Output>
		<plotfile type="febio">
			<var type="displacement"/>
			<var type="stress"/>
		</plotfile>
		<logfile>
			<element_data data="Ez" elem_set="unnamed_set01"/>
		</logfile>
	</Output>
</febio_spec>
