<?xml version="1.0" encoding="ISO-8859-1"?>
<!--
Problem Description:
	An element of trans iso Mooney-Rivlin material has a prescribed displacement
	in the x-direction on the right end nodes of 1 unit at time t=1.  The left end
	nodes are constrained in the x-direction.
Main Features:
	Trans Iso Mooney-Rivlin material
Secondary Features:
	
Materials:
	Trans Iso Mooney-Rivlin
Degrees of Freedom: 12
Results:
	Steps Completed: 10
	Equilibrium Iterations: 55
	Right Hand Evaluations: 65
	Siffness Reformations: 10
	Other:
		The top nodes have a displacement of -0.295 at time t=1.
Comments:
	
-->
<febio_spec version="3.0">
	<Module type="solid"/>
	<Control>
		<analysis>STATIC</analysis>
		<time_steps>10</time_steps>
		<step_size>0.1</step_size>
		<solver>
			<max_refs>15</max_refs>
			<max_ups>10</max_ups>
			<diverge_reform>1</diverge_reform>
			<reform_each_time_step>1</reform_each_time_step>
			<dtol>0.001</dtol>
			<etol>0.01</etol>
			<rtol>0</rtol>
			<lstol>0.9</lstol>
			<min_residual>1e-20</min_residual>
			<qnmethod>BFGS</qnmethod>
			<rhoi>-2</rhoi>
		</solver>
		<time_stepper>
			<dtmin>0.01</dtmin>
			<dtmax>0.1</dtmax>
			<max_retries>5</max_retries>
			<opt_iter>10</opt_iter>
		</time_stepper>
	</Control>
	<Globals>
		<Constants>
			<T>0</T>
			<R>0</R>
			<Fc>0</Fc>
		</Constants>
	</Globals>
	<Material>
		<material id="1" name="Material 1" type="trans iso Mooney-Rivlin">
			<density>1</density>
			<c1>1</c1>
			<c2>0</c2>
			<c3>5</c3>
			<c4>1</c4>
			<c5>0</c5>
			<lam_max>10</lam_max>
			<k>1000</k>
			<fiber type="vector">0.866,0.5,0</fiber>
		</material>
	</Material>
	<Mesh>
		<Nodes name="Object01">
			<node id="1">-0.5,-0.5,0</node>
			<node id="2">-0.5,-0.5,1</node>
			<node id="3">-0.5,0.5,0</node>
			<node id="4">-0.5,0.5,1</node>
			<node id="5">0.5,-0.5,0</node>
			<node id="6">0.5,-0.5,1</node>
			<node id="7">0.5,0.5,0</node>
			<node id="8">0.5,0.5,1</node>
		</Nodes>
		<Elements type="hex8" name="Part15">
			<elem id="1">1,5,7,3,2,6,8,4</elem>
		</Elements>
		<NodeSet name="FixedDisplacement01">
			<n id="1"/>
			<n id="3"/>
			<n id="5"/>
			<n id="7"/>
		</NodeSet>
		<NodeSet name="FixedDisplacement02">
			<n id="1"/>
			<n id="2"/>
			<n id="3"/>
			<n id="4"/>
		</NodeSet>
		<NodeSet name="FixedDisplacement03">
			<n id="3"/>
			<n id="4"/>
			<n id="7"/>
			<n id="8"/>
		</NodeSet>
		<NodeSet name="PrescribedBC106">
			<n id="5"/>
			<n id="6"/>
			<n id="7"/>
			<n id="8"/>
		</NodeSet>
		<ElementSet name="unnamed_set01">
			<e id="1"/>
		</ElementSet>
	</Mesh>
	<MeshDomains>
		<SolidDomain name="Part15" mat="Material 1"/>
	</MeshDomains>
	<Boundary>
		<bc name="FixedDisplacement01" type="fix" node_set="FixedDisplacement01">
			<dofs>z</dofs>
		</bc>
		<bc name="FixedDisplacement02" type="fix" node_set="FixedDisplacement02">
			<dofs>x</dofs>
		</bc>
		<bc name="FixedDisplacement03" type="fix" node_set="FixedDisplacement03">
			<dofs>y</dofs>
		</bc>
		<bc name="PrescribedBC106" type="prescribe" node_set="PrescribedBC106">
			<dof>x</dof>
			<scale lc="1">1</scale>
			<relative>0</relative>
		</bc>
	</Boundary>
	<LoadData>
		<load_controller id="1" type="loadcurve">
			<interpolate>LINEAR</interpolate>
			<points>
				<point>0,0</point>
				<point>1,1</point>
			</points>
		</load_controller>
	</LoadData>
	<Output>
		<plotfile type="febio">
			<var type="displacement"/>
			<var type="stress"/>
		</plotfile>
		<logfile>
			<element_data data="sx" elem_set="unnamed_set01"/>
		</logfile>
	</Output>
</febio_spec>
