<?xml version="1.0" encoding="ISO-8859-1"?>
<febio_spec version="3.0">
	<Module type="solid"/>
	<Control>
		<analysis>STATIC</analysis>
		<time_steps>10</time_steps>
		<step_size>0.1</step_size>
		<solver>
			<max_refs>15</max_refs>
			<max_ups>10</max_ups>
			<diverge_reform>1</diverge_reform>
			<reform_each_time_step>1</reform_each_time_step>
			<dtol>0.001</dtol>
			<etol>0.01</etol>
			<rtol>0</rtol>
			<lstol>0.9</lstol>
			<min_residual>1e-20</min_residual>
			<qnmethod>BFGS</qnmethod>
			<rhoi>-2</rhoi>
		</solver>
		<time_stepper>
			<dtmin>0.01</dtmin>
			<dtmax>0.1</dtmax>
			<max_retries>5</max_retries>
			<opt_iter>10</opt_iter>
		</time_stepper>
	</Control>
	<Globals>
		<Constants>
			<T>0</T>
			<R>0</R>
			<Fc>0</Fc>
		</Constants>
	</Globals>
	<Material>
		<material id="1" name="Material 1" type="EFD neo-Hookean">
			<E>1</E>
			<v>0.3</v>
			<beta>3,3,3</beta>
			<ksi>3,200,200</ksi>
		</material>
	</Material>
	<Mesh>
		<Nodes name="Object01">
			<node id="1">-0.5,-0.5,0</node>
			<node id="2">-0.5,-0.5,0.1</node>
			<node id="3">-0.5,-0.5,0.2</node>
			<node id="4">-0.5,-0.5,0.3</node>
			<node id="5">-0.5,-0.5,0.4</node>
			<node id="6">-0.5,-0.5,0.5</node>
			<node id="7">-0.5,-0.5,0.6</node>
			<node id="8">-0.5,-0.5,0.7</node>
			<node id="9">-0.5,-0.5,0.8</node>
			<node id="10">-0.5,-0.5,0.9</node>
			<node id="11">-0.5,-0.5,1</node>
			<node id="12">-0.5,-0.4,0</node>
			<node id="13">-0.5,-0.4,0.1</node>
			<node id="14">-0.5,-0.4,0.2</node>
			<node id="15">-0.5,-0.4,0.3</node>
			<node id="16">-0.5,-0.4,0.4</node>
			<node id="17">-0.5,-0.4,0.5</node>
			<node id="18">-0.5,-0.4,0.6</node>
			<node id="19">-0.5,-0.4,0.7</node>
			<node id="20">-0.5,-0.4,0.8</node>
<!-- ... 1311 like lines cut -->
		</Nodes>
		<Elements type="hex8" name="Part10">
			<elem id="1">1,122,133,12,2,123,134,13</elem>
			<elem id="2">2,123,134,13,3,124,135,14</elem>
			<elem id="3">3,124,135,14,4,125,136,15</elem>
			<elem id="4">4,125,136,15,5,126,137,16</elem>
			<elem id="5">5,126,137,16,6,127,138,17</elem>
			<elem id="6">6,127,138,17,7,128,139,18</elem>
			<elem id="7">7,128,139,18,8,129,140,19</elem>
			<elem id="8">8,129,140,19,9,130,141,20</elem>
			<elem id="9">9,130,141,20,10,131,142,21</elem>
			<elem id="10">10,131,142,21,11,132,143,22</elem>
			<elem id="11">12,133,144,23,13,134,145,24</elem>
			<elem id="12">13,134,145,24,14,135,146,25</elem>
			<elem id="13">14,135,146,25,15,136,147,26</elem>
			<elem id="14">15,136,147,26,16,137,148,27</elem>
			<elem id="15">16,137,148,27,17,138,149,28</elem>
			<elem id="16">17,138,149,28,18,139,150,29</elem>
			<elem id="17">18,139,150,29,19,140,151,30</elem>
			<elem id="18">19,140,151,30,20,141,152,31</elem>
			<elem id="19">20,141,152,31,21,142,153,32</elem>
			<elem id="20">21,142,153,32,22,143,154,33</elem>
<!-- ... 980 like lines cut -->
		</Elements>
		<NodeSet name="FixedDisplacement01">
			<n id="1"/>
			<n id="12"/>
			<n id="23"/>
			<n id="34"/>
			<n id="45"/>
			<n id="56"/>
			<n id="67"/>
			<n id="78"/>
			<n id="89"/>
			<n id="100"/>
			<n id="111"/>
			<n id="122"/>
			<n id="133"/>
			<n id="144"/>
			<n id="155"/>
			<n id="166"/>
			<n id="177"/>
			<n id="188"/>
			<n id="199"/>
			<n id="210"/>
<!-- ... 101 like lines cut -->
		</NodeSet>
		<NodeSet name="FixedDisplacement02">
			<n id="1"/>
			<n id="2"/>
			<n id="3"/>
			<n id="4"/>
			<n id="5"/>
			<n id="6"/>
			<n id="7"/>
			<n id="8"/>
			<n id="9"/>
			<n id="10"/>
			<n id="11"/>
			<n id="122"/>
			<n id="123"/>
			<n id="124"/>
			<n id="125"/>
			<n id="126"/>
			<n id="127"/>
			<n id="128"/>
			<n id="129"/>
			<n id="130"/>
<!-- ... 101 like lines cut -->
		</NodeSet>
		<NodeSet name="FixedDisplacement03">
			<n id="1"/>
			<n id="2"/>
			<n id="3"/>
			<n id="4"/>
			<n id="5"/>
			<n id="6"/>
			<n id="7"/>
			<n id="8"/>
			<n id="9"/>
			<n id="10"/>
			<n id="11"/>
			<n id="12"/>
			<n id="13"/>
			<n id="14"/>
			<n id="15"/>
			<n id="16"/>
			<n id="17"/>
			<n id="18"/>
			<n id="19"/>
			<n id="20"/>
<!-- ... 101 like lines cut -->
		</NodeSet>
		<NodeSet name="PrescribedBC117">
			<n id="11"/>
			<n id="22"/>
			<n id="33"/>
			<n id="44"/>
			<n id="55"/>
			<n id="66"/>
			<n id="77"/>
			<n id="88"/>
			<n id="99"/>
			<n id="110"/>
			<n id="121"/>
			<n id="132"/>
			<n id="143"/>
			<n id="154"/>
			<n id="165"/>
			<n id="176"/>
			<n id="187"/>
			<n id="198"/>
			<n id="209"/>
			<n id="220"/>
<!-- ... 101 like lines cut -->
		</NodeSet>
		<ElementSet name="unnamed_set01">
			<e id="10"/>
		</ElementSet>
	</Mesh>
	<MeshDomains>
		<SolidDomain name="Part10" mat="Material 1"/>
	</MeshDomains>
	<Boundary>
		<bc name="FixedDisplacement01" type="fix" node_set="FixedDisplacement01">
			<dofs>z</dofs>
		</bc>
		<bc name="FixedDisplacement02" type="fix" node_set="FixedDisplacement02">
			<dofs>y</dofs>
		</bc>
		<bc name="FixedDisplacement03" type="fix" node_set="FixedDisplacement03">
			<dofs>x</dofs>
		</bc>
		<bc name="PrescribedBC117" type="prescribe" node_set="PrescribedBC117">
			<dof>z</dof>
			<scale lc="1">1</scale>
			<relative>0</relative>
		</bc>
	</Boundary>
	<LoadData>
		<load_controller id="1" type="loadcurve">
			<interpolate>LINEAR</interpolate>
			<points>
				<point>0,0</point>
				<point>1,0.2</point>
			</points>
		</load_controller>
	</LoadData>
	<Output>
		<plotfile type="febio">
			<var type="displacement"/>
			<var type="stress"/>
		</plotfile>
		<logfile>
			<element_data data="Ez" elem_set="unnamed_set01"/>
		</logfile>
	</Output>
</febio_spec>
