<?xml version="1.0" encoding="ISO-8859-1"?>
<!--
"Channel flow with body load. Tilted. Uses Fluid BC formula (wrt coords)
-->
<febio_spec version="3.0">
	<Module type="fluid"/>
	<Control>
		<analysis>STEADY-STATE</analysis>
		<time_steps>10</time_steps>
		<step_size>0.1</step_size>
		<solver>
			<max_refs>5</max_refs>
			<max_ups>10</max_ups>
			<diverge_reform>0</diverge_reform>
			<reform_each_time_step>0</reform_each_time_step>
			<vtol>0.001</vtol>
			<ftol>0.001</ftol>
			<etol>0.01</etol>
			<rtol>0.001</rtol>
			<lstol>0.9</lstol>
			<min_residual>0</min_residual>
			<max_residual>1e+20</max_residual>
			<rhoi>-1</rhoi>
			<qnmethod>BROYDEN</qnmethod>
			<equation_scheme>1</equation_scheme>
			<symmetric_stiffness>0</symmetric_stiffness>
		</solver>
		<time_stepper>
			<dtmin>0.01</dtmin>
			<dtmax>0.1</dtmax>
			<max_retries>50</max_retries>
			<opt_iter>50</opt_iter>
		</time_stepper>
	</Control>
	<Globals>
		<Constants>
			<T>0</T>
			<R>0</R>
			<Fc>0</Fc>
		</Constants>
	</Globals>
	<Material>
		<material id="1" name="Material1" type="fluid">
			<density>1</density>
			<k>1e+09</k>
			<viscous type="Newtonian fluid">
				<mu>1</mu>
				<kappa>0</kappa>
			</viscous>
		</material>
	</Material>
	<Mesh>
		<Nodes name="Object01">
			<node id="1">-2.4150635,0.81698728,-6.2450045e-17</node>
			<node id="2">-2.4150635,0.81698728,0.1</node>
			<node id="3">-2.4063337,0.83210776,-6.2450045e-17</node>
			<node id="4">-2.4063337,0.83210776,0.1</node>
			<node id="5">-2.3967309,0.84874028,-6.2450045e-17</node>
			<node id="6">-2.3967309,0.84874028,0.1</node>
			<node id="7">-2.3861678,0.86703606,-6.2450045e-17</node>
			<node id="8">-2.3861678,0.86703606,0.1</node>
			<node id="9">-2.3745485,0.88716142,-6.2450045e-17</node>
			<node id="10">-2.3745485,0.88716142,0.1</node>
			<node id="11">-2.3617671,0.90929931,-6.2450045e-17</node>
			<node id="12">-2.3617671,0.90929931,0.1</node>
			<node id="13">-2.3477077,0.93365099,-6.2450045e-17</node>
			<node id="14">-2.3477077,0.93365099,0.1</node>
			<node id="15">-2.3322423,0.96043784,-6.2450045e-17</node>
			<node id="16">-2.3322423,0.96043784,0.1</node>
			<node id="17">-2.3152304,0.98990338,-6.2450045e-17</node>
			<node id="18">-2.3152304,0.98990338,0.1</node>
			<node id="19">-2.2965172,1.0223155,-6.2450045e-17</node>
			<node id="20">-2.2965172,1.0223155,0.1</node>
<!-- ... 442 like lines cut -->
		</Nodes>
		<Elements type="hex8" name="Part1">
			<elem id="1">1,43,45,3,2,44,46,4</elem>
			<elem id="2">3,45,47,5,4,46,48,6</elem>
			<elem id="3">5,47,49,7,6,48,50,8</elem>
			<elem id="4">7,49,51,9,8,50,52,10</elem>
			<elem id="5">9,51,53,11,10,52,54,12</elem>
			<elem id="6">11,53,55,13,12,54,56,14</elem>
			<elem id="7">13,55,57,15,14,56,58,16</elem>
			<elem id="8">15,57,59,17,16,58,60,18</elem>
			<elem id="9">17,59,61,19,18,60,62,20</elem>
			<elem id="10">19,61,63,21,20,62,64,22</elem>
			<elem id="11">21,63,65,23,22,64,66,24</elem>
			<elem id="12">23,65,67,25,24,66,68,26</elem>
			<elem id="13">25,67,69,27,26,68,70,28</elem>
			<elem id="14">27,69,71,29,28,70,72,30</elem>
			<elem id="15">29,71,73,31,30,72,74,32</elem>
			<elem id="16">31,73,75,33,32,74,76,34</elem>
			<elem id="17">33,75,77,35,34,76,78,36</elem>
			<elem id="18">35,77,79,37,36,78,80,38</elem>
			<elem id="19">37,79,81,39,38,80,82,40</elem>
			<elem id="20">39,81,83,41,40,82,84,42</elem>
<!-- ... 180 like lines cut -->
		</Elements>
		<NodeSet name="FixedFluidVelocity1">
			<n id="1"/>
			<n id="2"/>
			<n id="43"/>
			<n id="44"/>
			<n id="85"/>
			<n id="86"/>
			<n id="127"/>
			<n id="128"/>
			<n id="169"/>
			<n id="170"/>
			<n id="211"/>
			<n id="212"/>
			<n id="253"/>
			<n id="254"/>
			<n id="295"/>
			<n id="296"/>
			<n id="337"/>
			<n id="338"/>
			<n id="379"/>
			<n id="380"/>
			<n id="421"/>
			<n id="422"/>
		</NodeSet>
		<NodeSet name="FixedFluidVelocity2">
			<n id="1"/>
			<n id="2"/>
			<n id="3"/>
			<n id="4"/>
			<n id="5"/>
			<n id="6"/>
			<n id="7"/>
			<n id="8"/>
			<n id="9"/>
			<n id="10"/>
			<n id="11"/>
			<n id="12"/>
			<n id="13"/>
			<n id="14"/>
			<n id="15"/>
			<n id="16"/>
			<n id="17"/>
			<n id="18"/>
			<n id="19"/>
			<n id="20"/>
<!-- ... 904 like lines cut -->
		</NodeSet>
		<NodeSet name="PrescribedFluidDilatation1">
			<n id="421"/>
			<n id="422"/>
			<n id="423"/>
			<n id="424"/>
			<n id="425"/>
			<n id="426"/>
			<n id="427"/>
			<n id="428"/>
			<n id="429"/>
			<n id="430"/>
			<n id="431"/>
			<n id="432"/>
			<n id="433"/>
			<n id="434"/>
			<n id="435"/>
			<n id="436"/>
			<n id="437"/>
			<n id="438"/>
			<n id="439"/>
			<n id="440"/>
<!-- ... 22 like lines cut -->
		</NodeSet>
		<NodeSet name="PrescribedFluidDilatation2">
			<n id="1"/>
			<n id="2"/>
			<n id="3"/>
			<n id="4"/>
			<n id="5"/>
			<n id="6"/>
			<n id="7"/>
			<n id="8"/>
			<n id="9"/>
			<n id="10"/>
			<n id="11"/>
			<n id="12"/>
			<n id="13"/>
			<n id="14"/>
			<n id="15"/>
			<n id="16"/>
			<n id="17"/>
			<n id="18"/>
			<n id="19"/>
			<n id="20"/>
<!-- ... 22 like lines cut -->
		</NodeSet>
		<Surface name="NormalFlowConstraint1">
			<quad4 id="1">41,39,40,42</quad4>
			<quad4 id="2">39,37,38,40</quad4>
			<quad4 id="3">37,35,36,38</quad4>
			<quad4 id="4">35,33,34,36</quad4>
			<quad4 id="5">33,31,32,34</quad4>
			<quad4 id="6">31,29,30,32</quad4>
			<quad4 id="7">29,27,28,30</quad4>
			<quad4 id="8">27,25,26,28</quad4>
			<quad4 id="9">25,23,24,26</quad4>
			<quad4 id="10">23,21,22,24</quad4>
			<quad4 id="11">21,19,20,22</quad4>
			<quad4 id="12">19,17,18,20</quad4>
			<quad4 id="13">17,15,16,18</quad4>
			<quad4 id="14">15,13,14,16</quad4>
			<quad4 id="15">13,11,12,14</quad4>
			<quad4 id="16">11,9,10,12</quad4>
			<quad4 id="17">9,7,8,10</quad4>
			<quad4 id="18">7,5,6,8</quad4>
			<quad4 id="19">5,3,4,6</quad4>
			<quad4 id="20">3,1,2,4</quad4>
		</Surface>
		<Surface name="NormalFlowConstraint2">
			<quad4 id="1">421,423,424,422</quad4>
			<quad4 id="2">423,425,426,424</quad4>
			<quad4 id="3">425,427,428,426</quad4>
			<quad4 id="4">427,429,430,428</quad4>
			<quad4 id="5">429,431,432,430</quad4>
			<quad4 id="6">431,433,434,432</quad4>
			<quad4 id="7">433,435,436,434</quad4>
			<quad4 id="8">435,437,438,436</quad4>
			<quad4 id="9">437,439,440,438</quad4>
			<quad4 id="10">439,441,442,440</quad4>
			<quad4 id="11">441,443,444,442</quad4>
			<quad4 id="12">443,445,446,444</quad4>
			<quad4 id="13">445,447,448,446</quad4>
			<quad4 id="14">447,449,450,448</quad4>
			<quad4 id="15">449,451,452,450</quad4>
			<quad4 id="16">451,453,454,452</quad4>
			<quad4 id="17">453,455,456,454</quad4>
			<quad4 id="18">455,457,458,456</quad4>
			<quad4 id="19">457,459,460,458</quad4>
			<quad4 id="20">459,461,462,460</quad4>
		</Surface>
	</Mesh>
	<MeshDomains>
		<SolidDomain name="Part1" mat="Material1"/>
	</MeshDomains>
	<MeshData>
		<NodeData name="down_stream" generator="math" node_set="PrescribedFluidDilatation1">
			<math>1e-9*Y</math>
		</NodeData>
		<NodeData name="up_stream" generator="math" node_set="PrescribedFluidDilatation2">
			<math>1e-9*(Y-10)</math>
		</NodeData>
	</MeshData>
	<Boundary>
		<bc name="FixedFluidVelocity01" type="fix" node_set="FixedFluidVelocity1">
			<dofs>wx,wy</dofs>
		</bc>
		<bc name="FixedFluidVelocity02" type="fix" node_set="FixedFluidVelocity2">
			<dofs>wz</dofs>
		</bc>
		<bc name="PrescribedFluidDilatation1" type="prescribe" node_set="PrescribedFluidDilatation1">
			<dof>ef</dof>
			<scale lc="1" type="map">down_stream</scale>
			<relative>0</relative>
		</bc>
		<bc name="PrescribedFluidDilatation2" type="prescribe" node_set="PrescribedFluidDilatation2">
			<dof>ef</dof>
			<scale lc="2" type="map">up_stream</scale>
			<relative>0</relative>
		</bc>
	</Boundary>
	<Loads>
		<body_load type="const">
			<x lc="3">0</x>
			<y lc="4">1</y>
			<z lc="5">0</z>
		</body_load>
	</Loads>
	<Constraints>
		<constraint type="normal fluid flow" name="NormalFlowConstraint1" surface="NormalFlowConstraint1">
			<laugon>0</laugon>
			<tol>0.2</tol>
			<penalty>1000000</penalty>
			<minaug>0</minaug>
			<maxaug>0</maxaug>
			<rhs>0</rhs>
		</constraint>
		<constraint type="normal fluid flow" name="NormalFlowConstraint2" surface="NormalFlowConstraint2">
			<laugon>0</laugon>
			<tol>0.2</tol>
			<penalty>1000000</penalty>
			<minaug>0</minaug>
			<maxaug>0</maxaug>
			<rhs>0</rhs>
		</constraint>
	</Constraints>
	<LoadData>
		<load_controller id="1" type="loadcurve">
			<interpolate>SMOOTH</interpolate>
			<points>
				<point>0,0</point>
				<point>1,1</point>
			</points>
		</load_controller>
		<load_controller id="2" type="loadcurve">
			<interpolate>SMOOTH</interpolate>
			<points>
				<point>0,0</point>
				<point>1,1</point>
			</points>
		</load_controller>
		<load_controller id="3" type="loadcurve">
			<interpolate>SMOOTH</interpolate>
			<points>
				<point>0,0</point>
				<point>1,1</point>
			</points>
		</load_controller>
		<load_controller id="4" type="loadcurve">
			<interpolate>SMOOTH</interpolate>
			<points>
				<point>0,0</point>
				<point>1,1</point>
			</points>
		</load_controller>
		<load_controller id="5" type="loadcurve">
			<interpolate>SMOOTH</interpolate>
			<points>
				<point>0,0</point>
				<point>1,1</point>
			</points>
		</load_controller>
	</LoadData>
	<Output>
		<plotfile type="febio">
			<var type="fluid pressure"/>
			<var type="fluid acceleration"/>
			<var type="fluid dilatation"/>
			<var type="fluid rate of deformation"/>
			<var type="fluid stress"/>
			<var type="fluid velocity"/>
			<var type="fluid volume ratio"/>
			<var type="fluid vorticity"/>
			<var type="nodal fluid velocity"/>
		</plotfile>
	</Output>
</febio_spec>
