<?xml version="1.0" encoding="ISO-8859-1"?>
<!--
Problem Description:
	Tube where a rotational velocity is prescribed on inner and
	outer walls. This is a couette flow problem.
Main Features:
        Rotational velocity
Secondary Features:
        Dynamic
        Gen alpha
	Newtonian fluid
Materials:
	Newtonian Fluid
Degrees of Freedom: 3968
Results:
	Steps Completed: 50
	Equilibrium Iterations: 125
	Right Hand Evaluations: 175
	Stiffness Reformations: 125
	Other:
		The total nodal fluid velocity at node 683 at t=0.5 is 0.74998.
Comments:
       
-->
<febio_spec version="3.0">
	<Module type="fluid"/>
	<Control>
		<analysis>DYNAMIC</analysis>
		<time_steps>50</time_steps>
		<step_size>0.01</step_size>
		<solver>
			<max_refs>15</max_refs>
			<max_ups>0</max_ups>
			<diverge_reform>1</diverge_reform>
			<reform_each_time_step>1</reform_each_time_step>
			<vtol>0.001</vtol>
			<ftol>0.001</ftol>
			<etol>0.01</etol>
			<rtol>0.001</rtol>
			<lstol>0.9</lstol>
			<min_residual>0</min_residual>
			<max_residual>1e+20</max_residual>
			<rhoi>0</rhoi>
			<qnmethod>BROYDEN</qnmethod>
			<equation_scheme>1</equation_scheme>
			<symmetric_stiffness>0</symmetric_stiffness>
		</solver>
		<time_stepper>
			<dtmin>0.001</dtmin>
			<dtmax>0.01</dtmax>
			<max_retries>0</max_retries>
			<opt_iter>15</opt_iter>
		</time_stepper>
	</Control>
	<Globals>
		<Constants>
			<T>0</T>
			<R>0</R>
			<Fc>0</Fc>
		</Constants>
	</Globals>
	<Material>
		<material id="1" name="Material1" type="fluid">
			<density>1</density>
			<k>1e+09</k>
			<viscous type="Newtonian fluid">
				<mu>1</mu>
				<kappa>0</kappa>
			</viscous>
		</material>
	</Material>
	<Mesh>
		<Nodes name="Object01">
			<node id="1">0.5,0,0</node>
			<node id="2">0.50963069,0,0</node>
			<node id="3">0.52118752,0,0</node>
			<node id="4">0.53505571,0,0</node>
			<node id="5">0.55169754,0,0</node>
			<node id="6">0.57166774,0,0</node>
			<node id="7">0.59563197,0,0</node>
			<node id="8">0.62438906,0,0</node>
			<node id="9">0.65889756,0,0</node>
			<node id="10">0.70030776,0,0</node>
			<node id="11">0.75,0,0</node>
			<node id="12">0.79969224,0,0</node>
			<node id="13">0.84110244,0,0</node>
			<node id="14">0.87561094,0,0</node>
			<node id="15">0.90436803,0,0</node>
			<node id="16">0.92833226,0,0</node>
			<node id="17">0.94830246,0,0</node>
			<node id="18">0.96494429,0,0</node>
			<node id="19">0.97881248,0,0</node>
			<node id="20">0.99036931,0,0</node>
<!-- ... 1324 like lines cut -->
		</Nodes>
		<Elements type="hex8" name="Part1">
			<elem id="1">1,2,23,22,673,674,695,694</elem>
			<elem id="2">2,3,24,23,674,675,696,695</elem>
			<elem id="3">3,4,25,24,675,676,697,696</elem>
			<elem id="4">4,5,26,25,676,677,698,697</elem>
			<elem id="5">5,6,27,26,677,678,699,698</elem>
			<elem id="6">6,7,28,27,678,679,700,699</elem>
			<elem id="7">7,8,29,28,679,680,701,700</elem>
			<elem id="8">8,9,30,29,680,681,702,701</elem>
			<elem id="9">9,10,31,30,681,682,703,702</elem>
			<elem id="10">10,11,32,31,682,683,704,703</elem>
			<elem id="11">11,12,33,32,683,684,705,704</elem>
			<elem id="12">12,13,34,33,684,685,706,705</elem>
			<elem id="13">13,14,35,34,685,686,707,706</elem>
			<elem id="14">14,15,36,35,686,687,708,707</elem>
			<elem id="15">15,16,37,36,687,688,709,708</elem>
			<elem id="16">16,17,38,37,688,689,710,709</elem>
			<elem id="17">17,18,39,38,689,690,711,710</elem>
			<elem id="18">18,19,40,39,690,691,712,711</elem>
			<elem id="19">19,20,41,40,691,692,713,712</elem>
			<elem id="20">20,21,42,41,692,693,714,713</elem>
<!-- ... 620 like lines cut -->
		</Elements>
		<NodeSet name="FixedFluidVelocity1">
			<n id="1"/>
			<n id="2"/>
			<n id="3"/>
			<n id="4"/>
			<n id="5"/>
			<n id="6"/>
			<n id="7"/>
			<n id="8"/>
			<n id="9"/>
			<n id="10"/>
			<n id="11"/>
			<n id="12"/>
			<n id="13"/>
			<n id="14"/>
			<n id="15"/>
			<n id="16"/>
			<n id="17"/>
			<n id="18"/>
			<n id="19"/>
			<n id="20"/>
<!-- ... 10732 like lines cut -->
		</NodeSet>
		<NodeSet name="FixedFluidDilatation1">
			<n id="1"/>
			<n id="22"/>
			<n id="43"/>
			<n id="64"/>
			<n id="85"/>
			<n id="106"/>
			<n id="127"/>
			<n id="148"/>
			<n id="169"/>
			<n id="190"/>
			<n id="211"/>
			<n id="232"/>
			<n id="253"/>
			<n id="274"/>
			<n id="295"/>
			<n id="316"/>
			<n id="337"/>
			<n id="358"/>
			<n id="379"/>
			<n id="400"/>
<!-- ... 236 like lines cut -->
		</NodeSet>
		<Surface name="FluidRotationalVelocity1">
			<quad4 id="1">21,42,714,693</quad4>
			<quad4 id="2">42,63,735,714</quad4>
			<quad4 id="3">63,84,756,735</quad4>
			<quad4 id="4">84,105,777,756</quad4>
			<quad4 id="5">105,126,798,777</quad4>
			<quad4 id="6">126,147,819,798</quad4>
			<quad4 id="7">147,168,840,819</quad4>
			<quad4 id="8">168,189,861,840</quad4>
			<quad4 id="9">189,210,882,861</quad4>
			<quad4 id="10">210,231,903,882</quad4>
			<quad4 id="11">231,252,924,903</quad4>
			<quad4 id="12">252,273,945,924</quad4>
			<quad4 id="13">273,294,966,945</quad4>
			<quad4 id="14">294,315,987,966</quad4>
			<quad4 id="15">315,336,1008,987</quad4>
			<quad4 id="16">336,357,1029,1008</quad4>
			<quad4 id="17">357,378,1050,1029</quad4>
			<quad4 id="18">378,399,1071,1050</quad4>
			<quad4 id="19">399,420,1092,1071</quad4>
			<quad4 id="20">420,441,1113,1092</quad4>
<!-- ... 12 like lines cut -->
		</Surface>
		<Surface name="FluidRotationalVelocity2">
			<quad4 id="1">22,1,673,694</quad4>
			<quad4 id="2">43,22,694,715</quad4>
			<quad4 id="3">64,43,715,736</quad4>
			<quad4 id="4">85,64,736,757</quad4>
			<quad4 id="5">106,85,757,778</quad4>
			<quad4 id="6">127,106,778,799</quad4>
			<quad4 id="7">148,127,799,820</quad4>
			<quad4 id="8">169,148,820,841</quad4>
			<quad4 id="9">190,169,841,862</quad4>
			<quad4 id="10">211,190,862,883</quad4>
			<quad4 id="11">232,211,883,904</quad4>
			<quad4 id="12">253,232,904,925</quad4>
			<quad4 id="13">274,253,925,946</quad4>
			<quad4 id="14">295,274,946,967</quad4>
			<quad4 id="15">316,295,967,988</quad4>
			<quad4 id="16">337,316,988,1009</quad4>
			<quad4 id="17">358,337,1009,1030</quad4>
			<quad4 id="18">379,358,1030,1051</quad4>
			<quad4 id="19">400,379,1051,1072</quad4>
			<quad4 id="20">421,400,1072,1093</quad4>
<!-- ... 12 like lines cut -->
		</Surface>
	</Mesh>
	<MeshDomains>
		<SolidDomain name="Part1" mat="Material1"/>
	</MeshDomains>
	<Boundary>
		<bc name="FixedFluidVelocity01" type="fix" node_set="FixedFluidVelocity1">
			<dofs>wz</dofs>
		</bc>
		<bc name="FixedFluidDilatation01" type="fix" node_set="FixedFluidDilatation1">
			<dofs>ef</dofs>
		</bc>
		<bc name="FluidRotationalVelocity01" type="fluid rotational velocity" node_set="@surface:FluidRotationalVelocity1">
			<angular_speed lc="1">2</angular_speed>
			<axis>0,0,1</axis>
			<origin>0,0,0</origin>
		</bc>
		<bc name="FluidRotationalVelocity02" type="fluid rotational velocity" node_set="@surface:FluidRotationalVelocity2">
			<angular_speed lc="2">1</angular_speed>
			<axis>0,0,1</axis>
			<origin>0,0,0</origin>
		</bc>
	</Boundary>
	<Loads>
	</Loads>
	<LoadData>
		<load_controller id="1" type="loadcurve">
			<interpolate>STEP</interpolate>
			<points>
				<point>0,0</point>
				<point>1,1</point>
			</points>
		</load_controller>
		<load_controller id="2" type="loadcurve">
			<interpolate>STEP</interpolate>
			<points>
				<point>0,0</point>
				<point>1,1</point>
			</points>
		</load_controller>
	</LoadData>
	<Output>
		<plotfile type="febio">
			<var type="fluid pressure"/>
			<var type="fluid acceleration"/>
			<var type="fluid dilatation"/>
			<var type="fluid rate of deformation"/>
			<var type="fluid stress"/>
			<var type="fluid velocity"/>
			<var type="fluid volume ratio"/>
			<var type="fluid vorticity"/>
			<var type="nodal fluid velocity"/>
		</plotfile>
	</Output>
</febio_spec>
