<?xml version="1.0" encoding="ISO-8859-1"?>
<febio_spec version="3.0">
	<Module type="fluid"/>
	<Control>
		<analysis>STEADY-STATE</analysis>
		<time_steps>2</time_steps>
		<step_size>0.5</step_size>
		<solver>
			<max_refs>50</max_refs>
			<max_ups>0</max_ups>
			<diverge_reform>1</diverge_reform>
			<reform_each_time_step>1</reform_each_time_step>
			<vtol>0.001</vtol>
			<ftol>0.001</ftol>
			<etol>0.01</etol>
			<rtol>0</rtol>
			<lstol>0.9</lstol>
			<min_residual>1e-20</min_residual>
			<max_residual>1e+20</max_residual>
			<rhoi>0</rhoi>
			<qnmethod>BROYDEN</qnmethod>
			<equation_scheme>1</equation_scheme>
			<symmetric_stiffness>0</symmetric_stiffness>
		</solver>
	</Control>
	<Globals>
		<Constants>
			<T>0</T>
			<R>0</R>
			<Fc>0</Fc>
		</Constants>
	</Globals>
	<Material>
		<material id="1" name="Material1" type="fluid">
			<density>1</density>
			<k>1e+09</k>
			<viscous type="Newtonian fluid">
				<mu>1</mu>
				<kappa>0</kappa>
			</viscous>
		</material>
	</Material>
	<Mesh>
		<Nodes name="Object01">
			<node id="1">0.5,0,0</node>
			<node id="2">0.525,0,0</node>
			<node id="3">0.55,0,0</node>
			<node id="4">0.575,0,0</node>
			<node id="5">0.6,0,0</node>
			<node id="6">0.625,0,0</node>
			<node id="7">0.65,0,0</node>
			<node id="8">0.675,0,0</node>
			<node id="9">0.7,0,0</node>
			<node id="10">0.725,0,0</node>
			<node id="11">0.75,0,0</node>
			<node id="12">0.775,0,0</node>
			<node id="13">0.8,0,0</node>
			<node id="14">0.825,0,0</node>
			<node id="15">0.85,0,0</node>
			<node id="16">0.875,0,0</node>
			<node id="17">0.9,0,0</node>
			<node id="18">0.925,0,0</node>
			<node id="19">0.95,0,0</node>
			<node id="20">0.975,0,0</node>
<!-- ... 3340 like lines cut -->
		</Nodes>
		<Elements type="hex8" name="Part1">
			<elem id="1">1,2,23,22,1681,1682,1703,1702</elem>
			<elem id="2">2,3,24,23,1682,1683,1704,1703</elem>
			<elem id="3">3,4,25,24,1683,1684,1705,1704</elem>
			<elem id="4">4,5,26,25,1684,1685,1706,1705</elem>
			<elem id="5">5,6,27,26,1685,1686,1707,1706</elem>
			<elem id="6">6,7,28,27,1686,1687,1708,1707</elem>
			<elem id="7">7,8,29,28,1687,1688,1709,1708</elem>
			<elem id="8">8,9,30,29,1688,1689,1710,1709</elem>
			<elem id="9">9,10,31,30,1689,1690,1711,1710</elem>
			<elem id="10">10,11,32,31,1690,1691,1712,1711</elem>
			<elem id="11">11,12,33,32,1691,1692,1713,1712</elem>
			<elem id="12">12,13,34,33,1692,1693,1714,1713</elem>
			<elem id="13">13,14,35,34,1693,1694,1715,1714</elem>
			<elem id="14">14,15,36,35,1694,1695,1716,1715</elem>
			<elem id="15">15,16,37,36,1695,1696,1717,1716</elem>
			<elem id="16">16,17,38,37,1696,1697,1718,1717</elem>
			<elem id="17">17,18,39,38,1697,1698,1719,1718</elem>
			<elem id="18">18,19,40,39,1698,1699,1720,1719</elem>
			<elem id="19">19,20,41,40,1699,1700,1721,1720</elem>
			<elem id="20">20,21,42,41,1700,1701,1722,1721</elem>
<!-- ... 1580 like lines cut -->
		</Elements>
		<NodeSet name="FixedFluidVelocity01">
			<n id="1"/>
			<n id="2"/>
			<n id="3"/>
			<n id="4"/>
			<n id="5"/>
			<n id="6"/>
			<n id="7"/>
			<n id="8"/>
			<n id="9"/>
			<n id="10"/>
			<n id="11"/>
			<n id="12"/>
			<n id="13"/>
			<n id="14"/>
			<n id="15"/>
			<n id="16"/>
			<n id="17"/>
			<n id="18"/>
			<n id="19"/>
			<n id="20"/>
<!-- ... 26860 like lines cut -->
		</NodeSet>
		<NodeSet name="FixedFluidDilatation01">
			<n id="1"/>
			<n id="22"/>
			<n id="43"/>
			<n id="64"/>
			<n id="85"/>
			<n id="106"/>
			<n id="127"/>
			<n id="148"/>
			<n id="169"/>
			<n id="190"/>
			<n id="211"/>
			<n id="232"/>
			<n id="253"/>
			<n id="274"/>
			<n id="295"/>
			<n id="316"/>
			<n id="337"/>
			<n id="358"/>
			<n id="379"/>
			<n id="400"/>
<!-- ... 620 like lines cut -->
		</NodeSet>
		<Surface name="FluidRotationalVelocity1">
			<quad4 id="1">22,1,1681,1702</quad4>
			<quad4 id="2">43,22,1702,1723</quad4>
			<quad4 id="3">64,43,1723,1744</quad4>
			<quad4 id="4">85,64,1744,1765</quad4>
			<quad4 id="5">106,85,1765,1786</quad4>
			<quad4 id="6">127,106,1786,1807</quad4>
			<quad4 id="7">148,127,1807,1828</quad4>
			<quad4 id="8">169,148,1828,1849</quad4>
			<quad4 id="9">190,169,1849,1870</quad4>
			<quad4 id="10">211,190,1870,1891</quad4>
			<quad4 id="11">232,211,1891,1912</quad4>
			<quad4 id="12">253,232,1912,1933</quad4>
			<quad4 id="13">274,253,1933,1954</quad4>
			<quad4 id="14">295,274,1954,1975</quad4>
			<quad4 id="15">316,295,1975,1996</quad4>
			<quad4 id="16">337,316,1996,2017</quad4>
			<quad4 id="17">358,337,2017,2038</quad4>
			<quad4 id="18">379,358,2038,2059</quad4>
			<quad4 id="19">400,379,2059,2080</quad4>
			<quad4 id="20">421,400,2080,2101</quad4>
<!-- ... 60 like lines cut -->
		</Surface>
		<Surface name="FluidRotationalVelocity2">
			<quad4 id="1">21,42,1722,1701</quad4>
			<quad4 id="2">42,63,1743,1722</quad4>
			<quad4 id="3">63,84,1764,1743</quad4>
			<quad4 id="4">84,105,1785,1764</quad4>
			<quad4 id="5">105,126,1806,1785</quad4>
			<quad4 id="6">126,147,1827,1806</quad4>
			<quad4 id="7">147,168,1848,1827</quad4>
			<quad4 id="8">168,189,1869,1848</quad4>
			<quad4 id="9">189,210,1890,1869</quad4>
			<quad4 id="10">210,231,1911,1890</quad4>
			<quad4 id="11">231,252,1932,1911</quad4>
			<quad4 id="12">252,273,1953,1932</quad4>
			<quad4 id="13">273,294,1974,1953</quad4>
			<quad4 id="14">294,315,1995,1974</quad4>
			<quad4 id="15">315,336,2016,1995</quad4>
			<quad4 id="16">336,357,2037,2016</quad4>
			<quad4 id="17">357,378,2058,2037</quad4>
			<quad4 id="18">378,399,2079,2058</quad4>
			<quad4 id="19">399,420,2100,2079</quad4>
			<quad4 id="20">420,441,2121,2100</quad4>
<!-- ... 60 like lines cut -->
		</Surface>
	</Mesh>
	<MeshDomains>
		<SolidDomain name="Part1" mat="Material1"/>
	</MeshDomains>
	<Boundary>
		<bc name="FixedFluidVelocity01" type="fix" node_set="FixedFluidVelocity01">
			<dofs>wz</dofs>
		</bc>
		<bc name="FixedFluidDilatation01" type="fix" node_set="FixedFluidDilatation01">
			<dofs>ef</dofs>
		</bc>
		<bc name="FluidRotationalVelocity01" type="fluid rotational velocity" node_set="@surface:FluidRotationalVelocity1">
			<angular_speed lc="1">1</angular_speed>
			<axis>0,0,1</axis>
			<origin>0,0,0</origin>
		</bc>
		<bc name="FluidRotationalVelocity02" type="fluid rotational velocity" node_set="@surface:FluidRotationalVelocity2">
			<angular_speed lc="2">2</angular_speed>
			<axis>0,0,1</axis>
			<origin>0,0,0</origin>
		</bc>
	</Boundary>
	<Loads>
	</Loads>
	<LoadData>
		<load_controller id="1" type="loadcurve">
			<interpolate>SMOOTH</interpolate>
			<points>
				<point>0,0</point>
				<point>1,1</point>
			</points>
		</load_controller>
		<load_controller id="2" type="loadcurve">
			<interpolate>SMOOTH</interpolate>
			<points>
				<point>0,0</point>
				<point>1,1</point>
			</points>
		</load_controller>
	</LoadData>
	<Output>
		<plotfile type="febio">
			<var type="displacement"/>
			<var type="fluid pressure"/>
			<var type="fluid acceleration"/>
			<var type="fluid dilatation"/>
			<var type="fluid rate of deformation"/>
			<var type="fluid stress"/>
			<var type="fluid velocity"/>
			<var type="fluid vorticity"/>
			<var type="nodal fluid velocity"/>
		</plotfile>
	</Output>
</febio_spec>
