<?xml version="1.0" encoding="ISO-8859-1"?>
<!--
Problem Description:
	Rectangular channel where a normal fluid velocity load is
	prescribed at the inlet (plug). No pressure outlet, steady
	state so fully developed flow
Main Features:
        normal velocity load
        Steady state
	Broyden
Secondary Features:
	Newtonian fluid
Materials:
	Newtonian Fluid
Degrees of Freedom: 4754
Results:
	Steps Completed: 1
	Equilibrium Iterations: 4
	Right Hand Evaluations: 7
	Stiffness Reformations: 2
	Other:
		The total nodal fluid velocity at node 1706 at t=1 is 1.19264.
Comments:
       
-->
<febio_spec version="3.0">
	<Module type="fluid"/>
	<Control>
		<analysis>STEADY-STATE</analysis>
		<time_steps>1</time_steps>
		<step_size>1</step_size>
		<solver>
			<max_refs>5</max_refs>
			<max_ups>10</max_ups>
			<diverge_reform>1</diverge_reform>
			<reform_each_time_step>1</reform_each_time_step>
			<vtol>0.001</vtol>
			<ftol>0.001</ftol>
			<etol>0.01</etol>
			<rtol>0.001</rtol>
			<lstol>0.9</lstol>
			<min_residual>0</min_residual>
			<max_residual>1e+20</max_residual>
			<rhoi>-1</rhoi>
			<qnmethod>BROYDEN</qnmethod>
			<equation_scheme>1</equation_scheme>
			<symmetric_stiffness>0</symmetric_stiffness>
		</solver>
		<time_stepper>
			<dtmin>0.01</dtmin>
			<dtmax>1</dtmax>
			<max_retries>50</max_retries>
			<opt_iter>10</opt_iter>
		</time_stepper>
	</Control>
	<Globals>
		<Constants>
			<T>0</T>
			<R>0</R>
			<Fc>0</Fc>
		</Constants>
	</Globals>
	<Material>
		<material id="1" name="Material1" type="fluid">
			<density>1</density>
			<k>1e+09</k>
			<viscous type="Newtonian fluid">
				<mu>1</mu>
				<kappa>0</kappa>
			</viscous>
		</material>
	</Material>
	<Mesh>
		<Nodes name="Object01">
			<node id="1">-5,-0.5,0</node>
			<node id="2">-5,-0.5,0.1</node>
			<node id="3">-5,-0.48826828,0</node>
			<node id="4">-5,-0.48826828,0.1</node>
			<node id="5">-5,-0.47301704,0</node>
			<node id="6">-5,-0.47301704,0.1</node>
			<node id="7">-5,-0.45319044,0</node>
			<node id="8">-5,-0.45319044,0.1</node>
			<node id="9">-5,-0.42741585,0</node>
			<node id="10">-5,-0.42741585,0.1</node>
			<node id="11">-5,-0.39390888,0</node>
			<node id="12">-5,-0.39390888,0.1</node>
			<node id="13">-5,-0.35034983,0</node>
			<node id="14">-5,-0.35034983,0.1</node>
			<node id="15">-5,-0.29372306,0</node>
			<node id="16">-5,-0.29372306,0.1</node>
			<node id="17">-5,-0.22010826,0</node>
			<node id="18">-5,-0.22010826,0.1</node>
			<node id="19">-5,-0.12440902,0</node>
			<node id="20">-5,-0.12440902,0.1</node>
<!-- ... 1702 like lines cut -->
		</Nodes>
		<Elements type="hex8" name="Part1">
			<elem id="1">1,43,45,3,2,44,46,4</elem>
			<elem id="2">3,45,47,5,4,46,48,6</elem>
			<elem id="3">5,47,49,7,6,48,50,8</elem>
			<elem id="4">7,49,51,9,8,50,52,10</elem>
			<elem id="5">9,51,53,11,10,52,54,12</elem>
			<elem id="6">11,53,55,13,12,54,56,14</elem>
			<elem id="7">13,55,57,15,14,56,58,16</elem>
			<elem id="8">15,57,59,17,16,58,60,18</elem>
			<elem id="9">17,59,61,19,18,60,62,20</elem>
			<elem id="10">19,61,63,21,20,62,64,22</elem>
			<elem id="11">21,63,65,23,22,64,66,24</elem>
			<elem id="12">23,65,67,25,24,66,68,26</elem>
			<elem id="13">25,67,69,27,26,68,70,28</elem>
			<elem id="14">27,69,71,29,28,70,72,30</elem>
			<elem id="15">29,71,73,31,30,72,74,32</elem>
			<elem id="16">31,73,75,33,32,74,76,34</elem>
			<elem id="17">33,75,77,35,34,76,78,36</elem>
			<elem id="18">35,77,79,37,36,78,80,38</elem>
			<elem id="19">37,79,81,39,38,80,82,40</elem>
			<elem id="20">39,81,83,41,40,82,84,42</elem>
<!-- ... 780 like lines cut -->
		</Elements>
		<NodeSet name="FixedFluidVelocity1">
			<n id="1"/>
			<n id="2"/>
			<n id="3"/>
			<n id="4"/>
			<n id="5"/>
			<n id="6"/>
			<n id="7"/>
			<n id="8"/>
			<n id="9"/>
			<n id="10"/>
			<n id="11"/>
			<n id="12"/>
			<n id="13"/>
			<n id="14"/>
			<n id="15"/>
			<n id="16"/>
			<n id="17"/>
			<n id="18"/>
			<n id="19"/>
			<n id="20"/>
<!-- ... 3424 like lines cut -->
		</NodeSet>
		<NodeSet name="FixedFluidVelocity2">
			<n id="1"/>
			<n id="2"/>
			<n id="41"/>
			<n id="42"/>
			<n id="43"/>
			<n id="44"/>
			<n id="83"/>
			<n id="84"/>
			<n id="85"/>
			<n id="86"/>
			<n id="125"/>
			<n id="126"/>
			<n id="127"/>
			<n id="128"/>
			<n id="167"/>
			<n id="168"/>
			<n id="169"/>
			<n id="170"/>
			<n id="209"/>
			<n id="210"/>
<!-- ... 308 like lines cut -->
		</NodeSet>
		<NodeSet name="FixedFluidVelocity3">
			<n id="1681"/>
			<n id="1682"/>
			<n id="1683"/>
			<n id="1684"/>
			<n id="1685"/>
			<n id="1686"/>
			<n id="1687"/>
			<n id="1688"/>
			<n id="1689"/>
			<n id="1690"/>
			<n id="1691"/>
			<n id="1692"/>
			<n id="1693"/>
			<n id="1694"/>
			<n id="1695"/>
			<n id="1696"/>
			<n id="1697"/>
			<n id="1698"/>
			<n id="1699"/>
			<n id="1700"/>
<!-- ... 22 like lines cut -->
		</NodeSet>
		<NodeSet name="FixedFluidDilatation1">
			<n id="1681"/>
			<n id="1682"/>
			<n id="1683"/>
			<n id="1684"/>
			<n id="1685"/>
			<n id="1686"/>
			<n id="1687"/>
			<n id="1688"/>
			<n id="1689"/>
			<n id="1690"/>
			<n id="1691"/>
			<n id="1692"/>
			<n id="1693"/>
			<n id="1694"/>
			<n id="1695"/>
			<n id="1696"/>
			<n id="1697"/>
			<n id="1698"/>
			<n id="1699"/>
			<n id="1700"/>
<!-- ... 22 like lines cut -->
		</NodeSet>
		<NodeSet name="FixedFluidDilatation2">
			<n id="1"/>
			<n id="2"/>
			<n id="41"/>
			<n id="42"/>
			<n id="1"/>
			<n id="2"/>
			<n id="41"/>
			<n id="42"/>
		</NodeSet>
		<Surface name="FluidNormalVelocity1">
			<quad4 id="1">41,39,40,42</quad4>
			<quad4 id="2">39,37,38,40</quad4>
			<quad4 id="3">37,35,36,38</quad4>
			<quad4 id="4">35,33,34,36</quad4>
			<quad4 id="5">33,31,32,34</quad4>
			<quad4 id="6">31,29,30,32</quad4>
			<quad4 id="7">29,27,28,30</quad4>
			<quad4 id="8">27,25,26,28</quad4>
			<quad4 id="9">25,23,24,26</quad4>
			<quad4 id="10">23,21,22,24</quad4>
			<quad4 id="11">21,19,20,22</quad4>
			<quad4 id="12">19,17,18,20</quad4>
			<quad4 id="13">17,15,16,18</quad4>
			<quad4 id="14">15,13,14,16</quad4>
			<quad4 id="15">13,11,12,14</quad4>
			<quad4 id="16">11,9,10,12</quad4>
			<quad4 id="17">9,7,8,10</quad4>
			<quad4 id="18">7,5,6,8</quad4>
			<quad4 id="19">5,3,4,6</quad4>
			<quad4 id="20">3,1,2,4</quad4>
		</Surface>
	</Mesh>
	<MeshDomains>
		<SolidDomain name="Part1" mat="Material1"/>
	</MeshDomains>
	<Boundary>
		<bc name="FixedFluidVelocity01" type="fix" node_set="FixedFluidVelocity1">
			<dofs>wz</dofs>
		</bc>
		<bc name="FixedFluidVelocity02" type="fix" node_set="FixedFluidVelocity2">
			<dofs>wx,wy</dofs>
		</bc>
		<bc name="FixedFluidVelocity03" type="fix" node_set="FixedFluidVelocity3">
			<dofs>wy</dofs>
		</bc>
		<bc name="FixedFluidDilatation01" type="fix" node_set="FixedFluidDilatation1">
			<dofs>ef</dofs>
		</bc>
		<bc name="FixedFluidDilatation02" type="fix" node_set="FixedFluidDilatation2">
			<dofs>ef</dofs>
		</bc>
	</Boundary>
	<Loads>
		<surface_load name="FluidNormalVelocity01" type="fluid normal velocity" surface="FluidNormalVelocity1">
			<velocity lc="1">-1</velocity>
			<prescribe_nodal_velocities>1</prescribe_nodal_velocities>
			<parabolic>0</parabolic>
		</surface_load>
	</Loads>
	<LoadData>
		<load_controller id="1" type="loadcurve">
			<interpolate>SMOOTH</interpolate>
			<points>
				<point>0,0</point>
				<point>1,1</point>
			</points>
		</load_controller>
	</LoadData>
	<Output>
		<plotfile type="febio">
			<var type="fluid pressure"/>
			<var type="fluid acceleration"/>
			<var type="fluid density"/>
			<var type="fluid dilatation"/>
			<var type="fluid rate of deformation"/>
			<var type="fluid stress"/>
			<var type="fluid velocity"/>
			<var type="fluid volume ratio"/>
			<var type="fluid vorticity"/>
			<var type="nodal fluid velocity"/>
		</plotfile>
	</Output>
</febio_spec>
