<?xml version="1.0" encoding="ISO-8859-1"?>
<!--
Tube domain (curved inlet) where there is a flow past the center
cylinder. RE=100 and towards the end a Karman vortex street
forms. Hex 8 elements biased towards center

Similar examples seen in supplemental section of
Ateshian GA, Shim JJ, Maas SA, Weiss JA. (2018) J Biomech Eng, 140(2):021001-021001-17.
-->
<febio_spec version="3.0">
	<Module type="fluid"/>
	<Control>
		<analysis>DYNAMIC</analysis>
		<time_steps>1000</time_steps>
		<step_size>0.2</step_size>
		<solver>
			<max_refs>2</max_refs>
			<max_ups>50</max_ups>
			<diverge_reform>0</diverge_reform>
			<reform_each_time_step>0</reform_each_time_step>
			<vtol>0.001</vtol>
			<ftol>0.001</ftol>
			<etol>0.01</etol>
			<rtol>0.001</rtol>
			<lstol>0.9</lstol>
			<min_residual>5e-16</min_residual>
			<max_residual>1e+20</max_residual>
			<rhoi>0</rhoi>
			<qnmethod>BROYDEN</qnmethod>
			<equation_scheme>1</equation_scheme>
			<symmetric_stiffness>0</symmetric_stiffness>
		</solver>
	</Control>
	<Globals>
		<Constants>
			<T>0</T>
			<R>0</R>
			<Fc>0</Fc>
		</Constants>
	</Globals>
	<Material>
		<material id="1" name="Material1" type="fluid">
			<density>1</density>
			<k>1e+09</k>
			<viscous type="Newtonian fluid">
				<mu>0.01</mu>
				<kappa>0</kappa>
			</viscous>
		</material>
	</Material>
	<Mesh>
		<Nodes name="Object01">
			<node id="1">0.5,0,0</node>
			<node id="2">0.56637,0,0</node>
			<node id="3">0.652651,0,0</node>
			<node id="4">0.7648163,0,0</node>
			<node id="5">0.91063119,0,0</node>
			<node id="6">1.1001905,0,0</node>
			<node id="7">1.3466177,0,0</node>
			<node id="8">1.666973,0,0</node>
			<node id="9">2.0834349,0,0</node>
			<node id="10">2.6248354,0,0</node>
			<node id="11">3.328656,0,0</node>
			<node id="12">4.2436228,0,0</node>
			<node id="13">5.4330797,0,0</node>
			<node id="14">6.9793736,0,0</node>
			<node id="15">8.9895556,0,0</node>
			<node id="16">11.602792,0,0</node>
			<node id="17">15,0,0</node>
			<node id="18">0.49759236,0.049008569,0</node>
			<node id="19">0.56364277,0.055513967,0</node>
			<node id="20">0.64950831,0.063970983,0</node>
<!-- ... 2156 like lines cut -->
		</Nodes>
		<Elements type="hex8" name="Part1">
			<elem id="1">1,2,19,18,1089,1090,1107,1106</elem>
			<elem id="2">2,3,20,19,1090,1091,1108,1107</elem>
			<elem id="3">3,4,21,20,1091,1092,1109,1108</elem>
			<elem id="4">4,5,22,21,1092,1093,1110,1109</elem>
			<elem id="5">5,6,23,22,1093,1094,1111,1110</elem>
			<elem id="6">6,7,24,23,1094,1095,1112,1111</elem>
			<elem id="7">7,8,25,24,1095,1096,1113,1112</elem>
			<elem id="8">8,9,26,25,1096,1097,1114,1113</elem>
			<elem id="9">9,10,27,26,1097,1098,1115,1114</elem>
			<elem id="10">10,11,28,27,1098,1099,1116,1115</elem>
			<elem id="11">11,12,29,28,1099,1100,1117,1116</elem>
			<elem id="12">12,13,30,29,1100,1101,1118,1117</elem>
			<elem id="13">13,14,31,30,1101,1102,1119,1118</elem>
			<elem id="14">14,15,32,31,1102,1103,1120,1119</elem>
			<elem id="15">15,16,33,32,1103,1104,1121,1120</elem>
			<elem id="16">16,17,34,33,1104,1105,1122,1121</elem>
			<elem id="17">18,19,36,35,1106,1107,1124,1123</elem>
			<elem id="18">19,20,37,36,1107,1108,1125,1124</elem>
			<elem id="19">20,21,38,37,1108,1109,1126,1125</elem>
			<elem id="20">21,22,39,38,1109,1110,1127,1126</elem>
<!-- ... 1004 like lines cut -->
		</Elements>
		<NodeSet name="FixedFluidVelocity01">
			<n id="1"/>
			<n id="2"/>
			<n id="3"/>
			<n id="4"/>
			<n id="5"/>
			<n id="6"/>
			<n id="7"/>
			<n id="8"/>
			<n id="9"/>
			<n id="10"/>
			<n id="11"/>
			<n id="12"/>
			<n id="13"/>
			<n id="14"/>
			<n id="15"/>
			<n id="16"/>
			<n id="17"/>
			<n id="18"/>
			<n id="19"/>
			<n id="20"/>
<!-- ... 17388 like lines cut -->
		</NodeSet>
		<NodeSet name="FixedFluidVelocity02">
			<n id="1"/>
			<n id="18"/>
			<n id="35"/>
			<n id="52"/>
			<n id="69"/>
			<n id="86"/>
			<n id="103"/>
			<n id="120"/>
			<n id="137"/>
			<n id="154"/>
			<n id="171"/>
			<n id="188"/>
			<n id="205"/>
			<n id="222"/>
			<n id="239"/>
			<n id="256"/>
			<n id="273"/>
			<n id="290"/>
			<n id="307"/>
			<n id="324"/>
<!-- ... 492 like lines cut -->
		</NodeSet>
		<NodeSet name="FixedFluidDilatation01">
			<n id="17"/>
			<n id="34"/>
			<n id="51"/>
			<n id="68"/>
			<n id="85"/>
			<n id="102"/>
			<n id="119"/>
			<n id="136"/>
			<n id="153"/>
			<n id="170"/>
			<n id="187"/>
			<n id="204"/>
			<n id="221"/>
			<n id="238"/>
			<n id="255"/>
			<n id="272"/>
			<n id="289"/>
			<n id="833"/>
			<n id="850"/>
			<n id="867"/>
<!-- ... 112 like lines cut -->
		</NodeSet>
		<Surface name="FluidTractionLoad1">
			<quad4 id="1">289,306,1394,1377</quad4>
			<quad4 id="2">306,323,1411,1394</quad4>
			<quad4 id="3">323,340,1428,1411</quad4>
			<quad4 id="4">340,357,1445,1428</quad4>
			<quad4 id="5">357,374,1462,1445</quad4>
			<quad4 id="6">374,391,1479,1462</quad4>
			<quad4 id="7">391,408,1496,1479</quad4>
			<quad4 id="8">408,425,1513,1496</quad4>
			<quad4 id="9">425,442,1530,1513</quad4>
			<quad4 id="10">442,459,1547,1530</quad4>
			<quad4 id="11">459,476,1564,1547</quad4>
			<quad4 id="12">476,493,1581,1564</quad4>
			<quad4 id="13">493,510,1598,1581</quad4>
			<quad4 id="14">510,527,1615,1598</quad4>
			<quad4 id="15">527,544,1632,1615</quad4>
			<quad4 id="16">544,561,1649,1632</quad4>
			<quad4 id="17">561,578,1666,1649</quad4>
			<quad4 id="18">578,595,1683,1666</quad4>
			<quad4 id="19">595,612,1700,1683</quad4>
			<quad4 id="20">612,629,1717,1700</quad4>
<!-- ... 12 like lines cut -->
		</Surface>
		<Surface name="FluidVelocity1">
			<quad4 id="1">289,306,1394,1377</quad4>
			<quad4 id="2">306,323,1411,1394</quad4>
			<quad4 id="3">323,340,1428,1411</quad4>
			<quad4 id="4">340,357,1445,1428</quad4>
			<quad4 id="5">357,374,1462,1445</quad4>
			<quad4 id="6">374,391,1479,1462</quad4>
			<quad4 id="7">391,408,1496,1479</quad4>
			<quad4 id="8">408,425,1513,1496</quad4>
			<quad4 id="9">425,442,1530,1513</quad4>
			<quad4 id="10">442,459,1547,1530</quad4>
			<quad4 id="11">459,476,1564,1547</quad4>
			<quad4 id="12">476,493,1581,1564</quad4>
			<quad4 id="13">493,510,1598,1581</quad4>
			<quad4 id="14">510,527,1615,1598</quad4>
			<quad4 id="15">527,544,1632,1615</quad4>
			<quad4 id="16">544,561,1649,1632</quad4>
			<quad4 id="17">561,578,1666,1649</quad4>
			<quad4 id="18">578,595,1683,1666</quad4>
			<quad4 id="19">595,612,1700,1683</quad4>
			<quad4 id="20">612,629,1717,1700</quad4>
<!-- ... 12 like lines cut -->
		</Surface>
	</Mesh>
	<MeshDomains>
		<SolidDomain name="Part1" mat="Material1"/>
	</MeshDomains>
	<Boundary>
		<bc name="FixedFluidVelocity01" type="fix" node_set="FixedFluidVelocity01">
			<dofs>wz</dofs>
		</bc>
		<bc name="FixedFluidVelocity02" type="fix" node_set="FixedFluidVelocity02">
			<dofs>wx,wy</dofs>
		</bc>
		<bc name="FixedFluidDilatation01" type="fix" node_set="FixedFluidDilatation01">
			<dofs>ef</dofs>
		</bc>
	</Boundary>
	<Loads>
		<surface_load name="FluidTractionLoad0" type="fluid viscous traction" surface="FluidTractionLoad1">
			<scale lc="1">1</scale>
			<traction>0,1,0</traction>
		</surface_load>
		<surface_load name="FluidVelocity01" type="fluid velocity" surface="FluidVelocity1">
			<velocity>1,0,0</velocity>
			<scale lc="2">1</scale>
		</surface_load>
	</Loads>
	<LoadData>
		<load_controller id="1" type="loadcurve">
			<interpolate>LINEAR</interpolate>
			<points>
				<point>0,0</point>
				<point>0.2,1</point>
				<point>0.20001,0</point>
			</points>
		</load_controller>
		<load_controller id="2" type="loadcurve">
			<interpolate>SMOOTH</interpolate>
			<points>
				<point>0,0</point>
				<point>1,1</point>
			</points>
		</load_controller>
	</LoadData>
	<Output>
		<plotfile type="febio">
			<var type="displacement"/>
			<var type="fluid pressure"/>
			<var type="fluid acceleration"/>
			<var type="fluid dilatation"/>
			<var type="fluid rate of deformation"/>
			<var type="fluid stress"/>
			<var type="fluid surface force"/>
			<var type="fluid velocity"/>
			<var type="fluid vorticity"/>
			<var type="nodal fluid velocity"/>
		</plotfile>
	</Output>
</febio_spec>
