<?xml version="1.0" encoding="ISO-8859-1"?>
<!--
Problem Description:
	Flow past a tilted plate. The domain is a circle. Creates a
	Karman vortex street. Hex unstructured, rhoi=0
Main Features:
        fluid velocity load
        fluid surface force
	dynamic
Secondary Features:
        Newtonian fluid
	generalized alpha
	Broyden
	No diverge reform
	no ref each step
Materials:
	Newtonian Fluid
Degrees of Freedom: 16066
Results:
	Steps Completed: 300
	Equilibrium Iterations: 1120
	Right Hand Evaluations: 1422
	Stiffness Reformations: 17
	Other:
		The x-fluid surface force on plate at t=30 is 0.401019.
Comments:
        
-->
<febio_spec version="3.0">
	<Module type="fluid"/>
	<Control>
		<analysis>DYNAMIC</analysis>
		<time_steps>300</time_steps>
		<step_size>0.1</step_size>
		<solver>
			<max_refs>5</max_refs>
			<max_ups>50</max_ups>
			<diverge_reform>0</diverge_reform>
			<reform_each_time_step>0</reform_each_time_step>
			<vtol>0.001</vtol>
			<ftol>0.001</ftol>
			<etol>0.01</etol>
			<rtol>0.001</rtol>
			<lstol>0.9</lstol>
			<min_residual>0</min_residual>
			<max_residual>1e+20</max_residual>
			<rhoi>0</rhoi>
			<qnmethod>BROYDEN</qnmethod>
			<equation_scheme>1</equation_scheme>
			<symmetric_stiffness>0</symmetric_stiffness>
		</solver>
		<time_stepper>
			<dtmin>0.01</dtmin>
			<dtmax>0.1</dtmax>
			<max_retries>5</max_retries>
			<opt_iter>50</opt_iter>
		</time_stepper>
	</Control>
	<Globals>
		<Constants>
			<T>0</T>
			<R>0</R>
			<Fc>0</Fc>
		</Constants>
	</Globals>
	<Material>
		<material id="1" name="Material2" type="fluid">
			<density>1</density>
			<k>1e+09</k>
			<viscous type="Newtonian fluid">
				<mu>0.01</mu>
				<kappa>0</kappa>
			</viscous>
		</material>
	</Material>
	<Mesh>
		<Nodes name="Object01">
			<node id="1">-0.4580127,0.20669873,-0.5</node>
			<node id="2">0.4080127,-0.29330127,-0.5</node>
			<node id="3">-0.43668596,0.19438573,-0.5</node>
			<node id="4">-0.41216012,0.18022573,-0.5</node>
			<node id="5">-0.38395549,0.16394178,-0.5</node>
			<node id="6">-0.35152016,0.14521523,-0.5</node>
			<node id="7">-0.31421949,0.12367968,-0.5</node>
			<node id="8">-0.27132378,0.098913827,-0.5</node>
			<node id="9">-0.22199367,0.070433078,-0.5</node>
			<node id="10">-0.16526399,0.037680178,-0.5</node>
			<node id="11">-0.10002493,1.4393917e-05,-0.5</node>
			<node id="12">-0.025,-0.04330127,-0.5</node>
			<node id="13">0.050024933,-0.086616935,-0.5</node>
			<node id="14">0.11526399,-0.12428272,-0.5</node>
			<node id="15">0.17199367,-0.15703562,-0.5</node>
			<node id="16">0.22132378,-0.18551637,-0.5</node>
			<node id="17">0.26421949,-0.21028222,-0.5</node>
			<node id="18">0.30152016,-0.23181777,-0.5</node>
			<node id="19">0.33395549,-0.25054432,-0.5</node>
			<node id="20">0.36216012,-0.26682827,-0.5</node>
<!-- ... 5430 like lines cut -->
		</Nodes>
		<Elements type="hex8" name="Part1">
			<elem id="1">2726,2746,2864,2865,1,3,140,139</elem>
			<elem id="2">2746,2745,2866,2864,3,4,141,140</elem>
			<elem id="3">2745,2744,2867,2866,4,5,142,141</elem>
			<elem id="4">2744,2743,2868,2867,5,6,143,142</elem>
			<elem id="5">2743,2742,2869,2868,6,7,144,143</elem>
			<elem id="6">2742,2741,2870,2869,7,8,145,144</elem>
			<elem id="7">2741,2740,2871,2870,8,9,146,145</elem>
			<elem id="8">2740,2739,2872,2871,9,10,147,146</elem>
			<elem id="9">2739,2738,2873,2872,10,11,148,147</elem>
			<elem id="10">2738,2737,2874,2873,11,12,149,148</elem>
			<elem id="11">2737,2736,2875,2874,12,13,150,149</elem>
			<elem id="12">2736,2735,2876,2875,13,14,151,150</elem>
			<elem id="13">2735,2734,2877,2876,14,15,152,151</elem>
			<elem id="14">2734,2733,2878,2877,15,16,153,152</elem>
			<elem id="15">2733,2732,2879,2878,16,17,154,153</elem>
			<elem id="16">2732,2731,2880,2879,17,18,155,154</elem>
			<elem id="17">2731,2730,2881,2880,18,19,156,155</elem>
			<elem id="18">2730,2729,2882,2881,19,20,157,156</elem>
			<elem id="19">2729,2728,2883,2882,20,21,158,157</elem>
			<elem id="20">2728,2727,2884,2883,21,2,159,158</elem>
<!-- ... 2636 like lines cut -->
		</Elements>
		<NodeSet name="FixedFluidVelocity1">
			<n id="1"/>
			<n id="2"/>
			<n id="3"/>
			<n id="4"/>
			<n id="5"/>
			<n id="6"/>
			<n id="7"/>
			<n id="8"/>
			<n id="9"/>
			<n id="10"/>
			<n id="11"/>
			<n id="12"/>
			<n id="13"/>
			<n id="14"/>
			<n id="15"/>
			<n id="16"/>
			<n id="17"/>
			<n id="18"/>
			<n id="19"/>
			<n id="20"/>
<!-- ... 10880 like lines cut -->
		</NodeSet>
		<NodeSet name="FixedFluidDilatation1">
			<n id="49"/>
			<n id="50"/>
			<n id="51"/>
			<n id="52"/>
			<n id="53"/>
			<n id="54"/>
			<n id="55"/>
			<n id="56"/>
			<n id="57"/>
			<n id="58"/>
			<n id="59"/>
			<n id="60"/>
			<n id="61"/>
			<n id="62"/>
			<n id="63"/>
			<n id="64"/>
			<n id="109"/>
			<n id="110"/>
			<n id="111"/>
			<n id="112"/>
<!-- ... 72 like lines cut -->
		</NodeSet>
		<NodeSet name="FixedFluidVelocity2">
			<n id="1"/>
			<n id="2"/>
			<n id="3"/>
			<n id="4"/>
			<n id="5"/>
			<n id="6"/>
			<n id="7"/>
			<n id="8"/>
			<n id="9"/>
			<n id="10"/>
			<n id="11"/>
			<n id="12"/>
			<n id="13"/>
			<n id="14"/>
			<n id="15"/>
			<n id="16"/>
			<n id="17"/>
			<n id="18"/>
			<n id="19"/>
			<n id="20"/>
<!-- ... 364 like lines cut -->
		</NodeSet>
		<Surface name="FluidVelocityVector1">
			<quad4 id="1">2849,2848,65,64</quad4>
			<quad4 id="2">2848,2847,66,65</quad4>
			<quad4 id="3">2847,2846,67,66</quad4>
			<quad4 id="4">2846,2845,68,67</quad4>
			<quad4 id="5">2845,2844,69,68</quad4>
			<quad4 id="6">2844,2843,70,69</quad4>
			<quad4 id="7">2843,2842,71,70</quad4>
			<quad4 id="8">2842,2841,72,71</quad4>
			<quad4 id="9">2841,2840,73,72</quad4>
			<quad4 id="10">2840,2839,74,73</quad4>
			<quad4 id="11">2839,2838,75,74</quad4>
			<quad4 id="12">2838,2837,76,75</quad4>
			<quad4 id="13">2837,2836,77,76</quad4>
			<quad4 id="14">2836,2835,78,77</quad4>
			<quad4 id="15">2835,2834,79,78</quad4>
			<quad4 id="16">2834,2833,80,79</quad4>
			<quad4 id="17">2833,2832,81,80</quad4>
			<quad4 id="18">2832,2831,82,81</quad4>
			<quad4 id="19">2831,2830,83,82</quad4>
			<quad4 id="20">2830,2829,84,83</quad4>
<!-- ... 25 like lines cut -->
		</Surface>
	</Mesh>
	<MeshDomains>
		<SolidDomain name="Part1" mat="Material2"/>
	</MeshDomains>
	<Boundary>
		<bc name="FixedFluidVelocity01" type="fix" node_set="FixedFluidVelocity1">
			<dofs>wz</dofs>
		</bc>
		<bc name="FixedFluidDilatation01" type="fix" node_set="FixedFluidDilatation1">
			<dofs>ef</dofs>
		</bc>
		<bc name="FixedFluidVelocity02" type="fix" node_set="FixedFluidVelocity2">
			<dofs>wx,wy</dofs>
		</bc>
	</Boundary>
	<Loads>
		<surface_load name="FluidVelocity01" type="fluid velocity" surface="FluidVelocityVector1">
			<velocity>1,0,0</velocity>
			<scale lc="1">1</scale>
		</surface_load>
	</Loads>
	<LoadData>
		<load_controller id="1" type="loadcurve">
			<interpolate>STEP</interpolate>
			<points>
				<point>0,0</point>
				<point>1,1</point>
			</points>
		</load_controller>
	</LoadData>
	<Output>
		<plotfile type="febio">
			<var type="fluid pressure"/>
			<var type="fluid acceleration"/>
			<var type="fluid dilatation"/>
			<var type="fluid rate of deformation"/>
			<var type="fluid stress"/>
			<var type="fluid surface force"/>
			<var type="fluid velocity"/>
			<var type="fluid volume ratio"/>
			<var type="fluid vorticity"/>
			<var type="nodal fluid velocity"/>
		</plotfile>
	</Output>
</febio_spec>
