<?xml version="1.0" encoding="ISO-8859-1"?>
<!--
Problem Description:
	Flow through a quarter pipe. Carreau fluid, pressure
	prescribed at inlet with ef=0 outlet. Normal flow constraints
	on both inlet and outlet
Main Features:
        prescribed pressure
        normal flow constraint
        Non-Newtonian fluid
Secondary Features:
	generalized alpha
	dynamic
	Broyden
	No diverge reform
	no ref each step
Materials:
	Carreau Fluid
Degrees of Freedom: 17592
Results:
	Steps Completed: 50
	Equilibrium Iterations: 151
	Right Hand Evaluations: 201
	Stiffness Reformations: 3
	Other:
		The fluid shear viscosity at node 4470 at t=5 is 0.554459.
Comments:
        Material parameters from
        Cho YI and Kensey KR (1991). Biorheology, 28:241-262.
-->
<febio_spec version="3.0">
	<Module type="fluid"/>
	<Control>
		<analysis>DYNAMIC</analysis>
		<time_steps>50</time_steps>
		<step_size>0.1</step_size>
		<solver>
			<max_refs>2</max_refs>
			<max_ups>50</max_ups>
			<diverge_reform>0</diverge_reform>
			<reform_each_time_step>0</reform_each_time_step>
			<vtol>0.001</vtol>
			<ftol>0.001</ftol>
			<etol>0.01</etol>
			<rtol>0.001</rtol>
			<lstol>0.9</lstol>
			<min_residual>5e-16</min_residual>
			<max_residual>1e+20</max_residual>
			<rhoi>0</rhoi>
			<qnmethod>BROYDEN</qnmethod>
			<equation_scheme>1</equation_scheme>
			<symmetric_stiffness>0</symmetric_stiffness>
		</solver>
	</Control>
	<Globals>
		<Constants>
			<T>0</T>
			<R>0</R>
			<Fc>0</Fc>
		</Constants>
	</Globals>
	<Material>
		<material id="1" name="Material1" type="fluid">
			<density>1.06</density>
			<k>2.2e+10</k>
			<viscous type="Carreau">
				<mu0>0.56</mu0>
				<mui>0.0345</mui>
				<lambda>3.313</lambda>
				<n>0.3568</n>
			</viscous>
		</material>
	</Material>
	<Mesh>
		<Nodes name="Object01">
			<node id="1">0,0,0</node>
			<node id="2">0.30421067,0,0</node>
			<node id="3">0.29836534,0.059348556,0</node>
			<node id="4">0.28105401,0.11641638,0</node>
			<node id="5">0.25294193,0.16901039,0</node>
			<node id="6">0.21510943,0.21510942,0</node>
			<node id="7">0.1690104,0.25294192,0</node>
			<node id="8">0.11641639,0.28105401,0</node>
			<node id="9">0.059348564,0.29836534,0</node>
			<node id="10">8.1512934e-09,0.30421067,0</node>
			<node id="11">0.51715813,0,0</node>
			<node id="12">0.50722109,0.10089255,0</node>
			<node id="13">0.47779182,0.19790785,0</node>
			<node id="14">0.43000128,0.28731766,0</node>
			<node id="15">0.36568603,0.36568602,0</node>
			<node id="16">0.28731767,0.43000127,0</node>
			<node id="17">0.19790786,0.47779181,0</node>
			<node id="18">0.10089256,0.50722108,0</node>
			<node id="19">1.3857199e-08,0.51715813,0</node>
			<node id="20">0.66622136,0,0</node>
<!-- ... 4994 like lines cut -->
		</Nodes>
		<Elements type="penta6" name="Part2">
			<elem id="1">1,2,3,110,111,112</elem>
			<elem id="2">1,3,4,110,112,113</elem>
			<elem id="3">1,4,5,110,113,114</elem>
			<elem id="4">1,5,6,110,114,115</elem>
			<elem id="5">1,6,7,110,115,116</elem>
			<elem id="6">1,7,8,110,116,117</elem>
			<elem id="7">1,8,9,110,117,118</elem>
			<elem id="8">1,9,10,110,118,119</elem>
			<elem id="9">110,111,112,219,220,221</elem>
			<elem id="10">110,112,113,219,221,222</elem>
			<elem id="11">110,113,114,219,222,223</elem>
			<elem id="12">110,114,115,219,223,224</elem>
			<elem id="13">110,115,116,219,224,225</elem>
			<elem id="14">110,116,117,219,225,226</elem>
			<elem id="15">110,117,118,219,226,227</elem>
			<elem id="16">110,118,119,219,227,228</elem>
			<elem id="17">219,220,221,328,329,330</elem>
			<elem id="18">219,221,222,328,330,331</elem>
			<elem id="19">219,222,223,328,331,332</elem>
			<elem id="20">219,223,224,328,332,333</elem>
<!-- ... 340 like lines cut -->
		</Elements>
		<Elements type="hex8" name="Part2(2)">
			<elem id="361">2,11,12,3,111,120,121,112</elem>
			<elem id="362">3,12,13,4,112,121,122,113</elem>
			<elem id="363">4,13,14,5,113,122,123,114</elem>
			<elem id="364">5,14,15,6,114,123,124,115</elem>
			<elem id="365">6,15,16,7,115,124,125,116</elem>
			<elem id="366">7,16,17,8,116,125,126,117</elem>
			<elem id="367">8,17,18,9,117,126,127,118</elem>
			<elem id="368">9,18,19,10,118,127,128,119</elem>
			<elem id="369">11,20,21,12,120,129,130,121</elem>
			<elem id="370">12,21,22,13,121,130,131,122</elem>
			<elem id="371">13,22,23,14,122,131,132,123</elem>
			<elem id="372">14,23,24,15,123,132,133,124</elem>
			<elem id="373">15,24,25,16,124,133,134,125</elem>
			<elem id="374">16,25,26,17,125,134,135,126</elem>
			<elem id="375">17,26,27,18,126,135,136,127</elem>
			<elem id="376">18,27,28,19,127,136,137,128</elem>
			<elem id="377">20,29,30,21,129,138,139,130</elem>
			<elem id="378">21,30,31,22,130,139,140,131</elem>
			<elem id="379">22,31,32,23,131,140,141,132</elem>
			<elem id="380">23,32,33,24,132,141,142,133</elem>
<!-- ... 3940 like lines cut -->
		</Elements>
		<NodeSet name="FixedFluidVelocity01">
			<n id="101"/>
			<n id="102"/>
			<n id="103"/>
			<n id="104"/>
			<n id="105"/>
			<n id="106"/>
			<n id="107"/>
			<n id="108"/>
			<n id="109"/>
			<n id="210"/>
			<n id="211"/>
			<n id="212"/>
			<n id="213"/>
			<n id="214"/>
			<n id="215"/>
			<n id="216"/>
			<n id="217"/>
			<n id="218"/>
			<n id="319"/>
			<n id="320"/>
<!-- ... 394 like lines cut -->
		</NodeSet>
		<NodeSet name="FixedFluidDilatation01">
			<n id="4906"/>
			<n id="4907"/>
			<n id="4908"/>
			<n id="4909"/>
			<n id="4910"/>
			<n id="4911"/>
			<n id="4912"/>
			<n id="4913"/>
			<n id="4914"/>
			<n id="4915"/>
			<n id="4916"/>
			<n id="4917"/>
			<n id="4918"/>
			<n id="4919"/>
			<n id="4920"/>
			<n id="4921"/>
			<n id="4922"/>
			<n id="4923"/>
			<n id="4924"/>
			<n id="4925"/>
<!-- ... 89 like lines cut -->
		</NodeSet>
		<NodeSet name="FixedFluidVelocity02">
			<n id="1"/>
			<n id="10"/>
			<n id="19"/>
			<n id="28"/>
			<n id="37"/>
			<n id="46"/>
			<n id="55"/>
			<n id="64"/>
			<n id="73"/>
			<n id="82"/>
			<n id="91"/>
			<n id="100"/>
			<n id="109"/>
			<n id="110"/>
			<n id="119"/>
			<n id="128"/>
			<n id="137"/>
			<n id="146"/>
			<n id="155"/>
			<n id="164"/>
<!-- ... 578 like lines cut -->
		</NodeSet>
		<NodeSet name="FixedFluidVelocity03">
			<n id="1"/>
			<n id="2"/>
			<n id="11"/>
			<n id="20"/>
			<n id="29"/>
			<n id="38"/>
			<n id="47"/>
			<n id="56"/>
			<n id="65"/>
			<n id="74"/>
			<n id="83"/>
			<n id="92"/>
			<n id="101"/>
			<n id="110"/>
			<n id="111"/>
			<n id="120"/>
			<n id="129"/>
			<n id="138"/>
			<n id="147"/>
			<n id="156"/>
<!-- ... 578 like lines cut -->
		</NodeSet>
		<NodeSet name="PrescribedBC07">
			<n id="1"/>
			<n id="2"/>
			<n id="3"/>
			<n id="4"/>
			<n id="5"/>
			<n id="6"/>
			<n id="7"/>
			<n id="8"/>
			<n id="9"/>
			<n id="10"/>
			<n id="11"/>
			<n id="12"/>
			<n id="13"/>
			<n id="14"/>
			<n id="15"/>
			<n id="16"/>
			<n id="17"/>
			<n id="18"/>
			<n id="19"/>
			<n id="20"/>
<!-- ... 89 like lines cut -->
		</NodeSet>
		<Surface name="NormalFlowSurface01">
			<tri3 id="1">1,3,2</tri3>
			<tri3 id="2">1,4,3</tri3>
			<tri3 id="3">1,5,4</tri3>
			<tri3 id="4">1,6,5</tri3>
			<tri3 id="5">1,7,6</tri3>
			<tri3 id="6">1,8,7</tri3>
			<tri3 id="7">1,9,8</tri3>
			<tri3 id="8">1,10,9</tri3>
			<quad4 id="9">3,12,11,2</quad4>
			<quad4 id="10">4,13,12,3</quad4>
			<quad4 id="11">5,14,13,4</quad4>
			<quad4 id="12">6,15,14,5</quad4>
			<quad4 id="13">7,16,15,6</quad4>
			<quad4 id="14">8,17,16,7</quad4>
			<quad4 id="15">9,18,17,8</quad4>
			<quad4 id="16">10,19,18,9</quad4>
			<quad4 id="17">12,21,20,11</quad4>
			<quad4 id="18">13,22,21,12</quad4>
			<quad4 id="19">14,23,22,13</quad4>
			<quad4 id="20">15,24,23,14</quad4>
			<quad4 id="21">16,25,24,15</quad4>
			<quad4 id="22">17,26,25,16</quad4>
			<quad4 id="23">18,27,26,17</quad4>
			<quad4 id="24">19,28,27,18</quad4>
			<quad4 id="25">21,30,29,20</quad4>
			<quad4 id="26">22,31,30,21</quad4>
			<quad4 id="27">23,32,31,22</quad4>
			<quad4 id="28">24,33,32,23</quad4>
<!-- ... 68 like lines cut -->
		</Surface>
		<Surface name="NormalFlowSurface02">
			<tri3 id="1">4906,4907,4908</tri3>
			<tri3 id="2">4906,4908,4909</tri3>
			<tri3 id="3">4906,4909,4910</tri3>
			<tri3 id="4">4906,4910,4911</tri3>
			<tri3 id="5">4906,4911,4912</tri3>
			<tri3 id="6">4906,4912,4913</tri3>
			<tri3 id="7">4906,4913,4914</tri3>
			<tri3 id="8">4906,4914,4915</tri3>
			<quad4 id="9">4907,4916,4917,4908</quad4>
			<quad4 id="10">4908,4917,4918,4909</quad4>
			<quad4 id="11">4909,4918,4919,4910</quad4>
			<quad4 id="12">4910,4919,4920,4911</quad4>
			<quad4 id="13">4911,4920,4921,4912</quad4>
			<quad4 id="14">4912,4921,4922,4913</quad4>
			<quad4 id="15">4913,4922,4923,4914</quad4>
			<quad4 id="16">4914,4923,4924,4915</quad4>
			<quad4 id="17">4916,4925,4926,4917</quad4>
			<quad4 id="18">4917,4926,4927,4918</quad4>
			<quad4 id="19">4918,4927,4928,4919</quad4>
			<quad4 id="20">4919,4928,4929,4920</quad4>
			<quad4 id="21">4920,4929,4930,4921</quad4>
			<quad4 id="22">4921,4930,4931,4922</quad4>
			<quad4 id="23">4922,4931,4932,4923</quad4>
			<quad4 id="24">4923,4932,4933,4924</quad4>
			<quad4 id="25">4925,4934,4935,4926</quad4>
			<quad4 id="26">4926,4935,4936,4927</quad4>
			<quad4 id="27">4927,4936,4937,4928</quad4>
			<quad4 id="28">4928,4937,4938,4929</quad4>
<!-- ... 68 like lines cut -->
		</Surface>
	</Mesh>
	<MeshDomains>
		<SolidDomain name="Part2" mat="Material1"/>
		<SolidDomain name="Part2(2)" mat="Material1"/>
	</MeshDomains>
	<Boundary>
		<bc name="FixedFluidVelocity01" type="fix" node_set="FixedFluidVelocity01">
			<dofs>wx,wy,wz</dofs>
		</bc>
		<bc name="FixedFluidDilatation01" type="fix" node_set="FixedFluidDilatation01">
			<dofs>ef</dofs>
		</bc>
		<bc name="FixedFluidVelocity02" type="fix" node_set="FixedFluidVelocity02">
			<dofs>wx</dofs>
		</bc>
		<bc name="FixedFluidVelocity03" type="fix" node_set="FixedFluidVelocity03">
			<dofs>wy</dofs>
		</bc>
		<bc name="PrescribedBC07" type="prescribe" node_set="PrescribedBC07">
			<dof>ef</dof>
			<scale lc="1">-1</scale>
			<relative>0</relative>
		</bc>
	</Boundary>
	<Constraints>
		<constraint type="normal fluid flow" name="NormalFlowSurface02" surface="NormalFlowSurface01">
			<laugon>0</laugon>
			<tol>0.2</tol>
			<penalty>1000000</penalty>
			<minaug>0</minaug>
			<maxaug>0</maxaug>
			<rhs>0</rhs>
		</constraint>
		<constraint type="normal fluid flow" name="NormalFlowSurface03" surface="NormalFlowSurface02">
			<laugon>0</laugon>
			<tol>0.2</tol>
			<penalty>1000000</penalty>
			<minaug>0</minaug>
			<maxaug>0</maxaug>
			<rhs>0</rhs>
		</constraint>
	</Constraints>
	<LoadData>
		<load_controller id="1" type="loadcurve">
			<interpolate>SMOOTH</interpolate>
			<points>
				<point>0,0</point>
				<point>1,2.07e-10</point>
			</points>
		</load_controller>
	</LoadData>
	<Output>
		<plotfile type="febio">
			<var type="displacement"/>
			<var type="fluid pressure"/>
			<var type="fluid acceleration"/>
			<var type="fluid dilatation"/>
			<var type="fluid rate of deformation"/>
			<var type="fluid shear viscosity"/>
			<var type="fluid stress"/>
			<var type="fluid velocity"/>
			<var type="fluid vorticity"/>
			<var type="nodal fluid velocity"/>
		</plotfile>
	</Output>
</febio_spec>
