<?xml version="1.0" encoding="ISO-8859-1"?>
<!--
64x64 biased lid driven cavity box problem RE=400. x-vel prescribed on the
lid of the box to create vortex within. Uses must points to
shorten problem to reach steady state

Similar examples seen in results of
Ateshian GA, Shim JJ, Maas SA, Weiss JA. (2018) J Biomech Eng, 140(2):021001-021001-17.
-->
<febio_spec version="3.0">
	<Module type="fluid"/>
	<Control>
		<analysis>DYNAMIC</analysis>
		<time_steps>10000</time_steps>
		<step_size>0.1</step_size>
		<solver>
			<max_refs>2</max_refs>
			<max_ups>50</max_ups>
			<diverge_reform>0</diverge_reform>
			<reform_each_time_step>0</reform_each_time_step>
			<vtol>0.001</vtol>
			<ftol>0.001</ftol>
			<etol>0.01</etol>
			<rtol>0.001</rtol>
			<lstol>0.9</lstol>
			<min_residual>5e-16</min_residual>
			<max_residual>1e+20</max_residual>
			<rhoi>0</rhoi>
			<qnmethod>BROYDEN</qnmethod>
			<equation_scheme>1</equation_scheme>
			<symmetric_stiffness>0</symmetric_stiffness>
		</solver>
		<time_stepper>
			<dtmin>0.1</dtmin>
			<dtmax lc="1"></dtmax>
			<max_retries>5</max_retries>
			<opt_iter>50</opt_iter>
		</time_stepper>
	</Control>
	<Globals>
		<Constants>
			<T>0</T>
			<R>0</R>
			<Fc>0</Fc>
		</Constants>
	</Globals>
	<Material>
		<material id="1" name="Material1" type="fluid">
			<density>1</density>
			<k>1e+09</k>
			<viscous type="Newtonian fluid">
				<mu>0.0025</mu>
				<kappa>0</kappa>
			</viscous>
		</material>
	</Material>
	<Mesh>
		<Nodes name="Object01">
			<node id="1">0,0,0</node>
			<node id="2">0,0,0.05</node>
			<node id="3">0,0.00029340838,0</node>
			<node id="4">0,0.00029340838,0.05</node>
			<node id="5">0,0.00064549844,0</node>
			<node id="6">0,0.00064549844,0.05</node>
			<node id="7">0,0.0010680065,0</node>
			<node id="8">0,0.0010680065,0.05</node>
			<node id="9">0,0.0015750162,0</node>
			<node id="10">0,0.0015750162,0.05</node>
			<node id="11">0,0.0021834278,0</node>
			<node id="12">0,0.0021834278,0.05</node>
			<node id="13">0,0.0029135218,0</node>
			<node id="14">0,0.0029135218,0.05</node>
			<node id="15">0,0.0037896345,0</node>
			<node id="16">0,0.0037896345,0.05</node>
			<node id="17">0,0.0048409698,0</node>
			<node id="18">0,0.0048409698,0.05</node>
			<node id="19">0,0.0061025721,0</node>
			<node id="20">0,0.0061025721,0.05</node>
<!-- ... 8430 like lines cut -->
		</Nodes>
		<Elements type="hex8" name="Part1">
			<elem id="1">1,131,133,3,2,132,134,4</elem>
			<elem id="2">3,133,135,5,4,134,136,6</elem>
			<elem id="3">5,135,137,7,6,136,138,8</elem>
			<elem id="4">7,137,139,9,8,138,140,10</elem>
			<elem id="5">9,139,141,11,10,140,142,12</elem>
			<elem id="6">11,141,143,13,12,142,144,14</elem>
			<elem id="7">13,143,145,15,14,144,146,16</elem>
			<elem id="8">15,145,147,17,16,146,148,18</elem>
			<elem id="9">17,147,149,19,18,148,150,20</elem>
			<elem id="10">19,149,151,21,20,150,152,22</elem>
			<elem id="11">21,151,153,23,22,152,154,24</elem>
			<elem id="12">23,153,155,25,24,154,156,26</elem>
			<elem id="13">25,155,157,27,26,156,158,28</elem>
			<elem id="14">27,157,159,29,28,158,160,30</elem>
			<elem id="15">29,159,161,31,30,160,162,32</elem>
			<elem id="16">31,161,163,33,32,162,164,34</elem>
			<elem id="17">33,163,165,35,34,164,166,36</elem>
			<elem id="18">35,165,167,37,36,166,168,38</elem>
			<elem id="19">37,167,169,39,38,168,170,40</elem>
			<elem id="20">39,169,171,41,40,170,172,42</elem>
<!-- ... 4076 like lines cut -->
		</Elements>
		<NodeSet name="FixedFluidVelocity01">
			<n id="1"/>
			<n id="2"/>
			<n id="3"/>
			<n id="4"/>
			<n id="5"/>
			<n id="6"/>
			<n id="7"/>
			<n id="8"/>
			<n id="9"/>
			<n id="10"/>
			<n id="11"/>
			<n id="12"/>
			<n id="13"/>
			<n id="14"/>
			<n id="15"/>
			<n id="16"/>
			<n id="17"/>
			<n id="18"/>
			<n id="19"/>
			<n id="20"/>
<!-- ... 16880 like lines cut -->
		</NodeSet>
		<NodeSet name="FixedFluidVelocity02">
			<n id="1"/>
			<n id="2"/>
			<n id="3"/>
			<n id="4"/>
			<n id="5"/>
			<n id="6"/>
			<n id="7"/>
			<n id="8"/>
			<n id="9"/>
			<n id="10"/>
			<n id="11"/>
			<n id="12"/>
			<n id="13"/>
			<n id="14"/>
			<n id="15"/>
			<n id="16"/>
			<n id="17"/>
			<n id="18"/>
			<n id="19"/>
			<n id="20"/>
<!-- ... 1138 like lines cut -->
		</NodeSet>
		<NodeSet name="FixedFluidVelocity03">
			<n id="129"/>
			<n id="130"/>
			<n id="259"/>
			<n id="260"/>
			<n id="389"/>
			<n id="390"/>
			<n id="519"/>
			<n id="520"/>
			<n id="649"/>
			<n id="650"/>
			<n id="779"/>
			<n id="780"/>
			<n id="909"/>
			<n id="910"/>
			<n id="1039"/>
			<n id="1040"/>
			<n id="1169"/>
			<n id="1170"/>
			<n id="1299"/>
			<n id="1300"/>
<!-- ... 110 like lines cut -->
		</NodeSet>
		<NodeSet name="FixedFluidDilatation01">
			<n id="129"/>
			<n id="130"/>
			<n id="8449"/>
			<n id="8450"/>
			<n id="129"/>
			<n id="130"/>
			<n id="8449"/>
			<n id="8450"/>
		</NodeSet>
		<NodeSet name="PrescribedBC08">
			<n id="129"/>
			<n id="130"/>
			<n id="259"/>
			<n id="260"/>
			<n id="389"/>
			<n id="390"/>
			<n id="519"/>
			<n id="520"/>
			<n id="649"/>
			<n id="650"/>
			<n id="779"/>
			<n id="780"/>
			<n id="909"/>
			<n id="910"/>
			<n id="1039"/>
			<n id="1040"/>
			<n id="1169"/>
			<n id="1170"/>
			<n id="1299"/>
			<n id="1300"/>
<!-- ... 110 like lines cut -->
		</NodeSet>
	</Mesh>
	<MeshDomains>
		<SolidDomain name="Part1" mat="Material1"/>
	</MeshDomains>
	<Boundary>
		<bc name="FixedFluidVelocity01" type="fix" node_set="FixedFluidVelocity01">
			<dofs>wz</dofs>
		</bc>
		<bc name="FixedFluidVelocity02" type="fix" node_set="FixedFluidVelocity02">
			<dofs>wx,wy</dofs>
		</bc>
		<bc name="FixedFluidVelocity03" type="fix" node_set="FixedFluidVelocity03">
			<dofs>wy</dofs>
		</bc>
		<bc name="FixedFluidDilatation01" type="fix" node_set="FixedFluidDilatation01">
			<dofs>ef</dofs>
		</bc>
		<bc name="PrescribedBC08" type="prescribe" node_set="PrescribedBC08">
			<dof>wx</dof>
			<scale lc="2">1</scale>
			<relative>0</relative>
		</bc>
	</Boundary>
	<LoadData>
		<load_controller id="1" type="loadcurve">
			<interpolate>STEP</interpolate>
			<points>
				<point>0,0</point>
				<point>1,0.1</point>
				<point>2,0.1</point>
				<point>10,1</point>
				<point>100,10</point>
				<point>1000,100</point>
			</points>
		</load_controller>
		<load_controller id="2" type="loadcurve">
			<interpolate>SMOOTH</interpolate>
			<points>
				<point>0,0</point>
				<point>1,1</point>
			</points>
		</load_controller>
	</LoadData>
	<Output>
		<plotfile type="febio">
			<var type="displacement"/>
			<var type="fluid pressure"/>
			<var type="fluid acceleration"/>
			<var type="fluid dilatation"/>
			<var type="fluid rate of deformation"/>
			<var type="fluid stress"/>
			<var type="fluid velocity"/>
			<var type="fluid vorticity"/>
			<var type="nodal fluid velocity"/>
		</plotfile>
	</Output>
</febio_spec>
