<?xml version="1.0" encoding="ISO-8859-1"?>
<!--
Problem Description:
	24x24 biased lid driven cavity box problem RE=400. x-vel prescribed on the
	lid of the box to create vortex within. Uses must points to
	shorten problem to reach steady state. Tet10 elements
Main Features:
        prescribe tangential vel
        Broyden
	Must points
	Tet10
Secondary Features:
        Dynamic
        no ref each step
	gen alpha
	No diverge reform
	Newtonian fluid
Materials:
	Newtonian Fluid
Degrees of Freedom: 22948
Results:
	Steps Completed: 58
	Equilibrium Iterations: 258
	Right Hand Evaluations: 327
	Stiffness Reformations: 5
	Other:
		The total nodal fluid velocity at node 626 at t=1000 is 0.126178.
Comments:
        Similar examples seen in results of
        Ateshian GA, Shim JJ, Maas SA, Weiss JA. (2018) J Biomech Eng, 140(2):021001-021001-17.
-->
<febio_spec version="3.0">
	<Module type="fluid"/>
	<Control>
		<analysis>DYNAMIC</analysis>
		<time_steps>10000</time_steps>
		<step_size>0.1</step_size>
		<solver>
			<max_refs>2</max_refs>
			<max_ups>50</max_ups>
			<diverge_reform>0</diverge_reform>
			<reform_each_time_step>0</reform_each_time_step>
			<vtol>0.001</vtol>
			<ftol>0.001</ftol>
			<etol>0.01</etol>
			<rtol>0.001</rtol>
			<lstol>0.9</lstol>
			<min_residual>5e-16</min_residual>
			<max_residual>1e+20</max_residual>
			<rhoi>0</rhoi>
			<qnmethod>BROYDEN</qnmethod>
			<equation_scheme>1</equation_scheme>
			<symmetric_stiffness>0</symmetric_stiffness>
		</solver>
		<time_stepper>
			<dtmin>0.1</dtmin>
			<dtmax lc="1"></dtmax>
			<max_retries>5</max_retries>
			<opt_iter>50</opt_iter>
		</time_stepper>
	</Control>
	<Globals>
		<Constants>
			<T>0</T>
			<R>0</R>
			<Fc>0</Fc>
		</Constants>
	</Globals>
	<Material>
		<material id="1" name="Material1" type="fluid">
			<density>1</density>
			<k>1e+09</k>
			<viscous type="Newtonian fluid">
				<mu>0.0025</mu>
				<kappa>0</kappa>
			</viscous>
		</material>
	</Material>
	<Mesh>
		<Nodes name="Object01">
			<node id="1">0,0,0</node>
			<node id="2">0,0,0.05</node>
			<node id="3">0,0.006727035,0</node>
			<node id="4">0,0.006727035,0.05</node>
			<node id="5">0,0.015472181,0</node>
			<node id="6">0,0.015472181,0.05</node>
			<node id="7">0,0.02684087,0</node>
			<node id="8">0,0.02684087,0.05</node>
			<node id="9">0,0.041620166,0</node>
			<node id="10">0,0.041620166,0.05</node>
			<node id="11">0,0.060833251,0</node>
			<node id="12">0,0.060833251,0.05</node>
			<node id="13">0,0.085810261,0</node>
			<node id="14">0,0.085810261,0.05</node>
			<node id="15">0,0.11828037,0</node>
			<node id="16">0,0.11828037,0.05</node>
			<node id="17">0,0.16049152,0</node>
			<node id="18">0,0.16049152,0.05</node>
			<node id="19">0,0.21536601,0</node>
			<node id="20">0,0.21536601,0.05</node>
<!-- ... 7183 like lines cut -->
		</Nodes>
		<Elements type="tet10" name="Part1">
			<elem id="1">51,53,3,54,1495,1259,1260,1496,1503,1261</elem>
			<elem id="2">1,51,3,54,1251,1260,1252,1253,1496,1261</elem>
			<elem id="3">1,54,3,4,1253,1261,1252,1254,1266,1262</elem>
			<elem id="4">51,52,54,1,1497,1501,1496,1251,1255,1253</elem>
			<elem id="5">2,4,52,1,1257,1267,1258,1256,1254,1255</elem>
			<elem id="6">52,4,54,1,1267,1266,1501,1255,1254,1253</elem>
			<elem id="7">53,55,5,56,1504,1269,1270,1505,1513,1271</elem>
			<elem id="8">3,53,5,56,1259,1270,1263,1264,1505,1271</elem>
			<elem id="9">3,56,5,6,1264,1271,1263,1265,1276,1272</elem>
			<elem id="10">53,54,56,3,1503,1510,1505,1259,1261,1264</elem>
			<elem id="11">4,6,54,3,1268,1277,1266,1262,1265,1261</elem>
			<elem id="12">54,6,56,3,1277,1276,1510,1261,1265,1264</elem>
			<elem id="13">55,57,7,58,1514,1279,1280,1515,1523,1281</elem>
			<elem id="14">5,55,7,58,1269,1280,1273,1274,1515,1281</elem>
			<elem id="15">5,58,7,8,1274,1281,1273,1275,1286,1282</elem>
			<elem id="16">55,56,58,5,1513,1520,1515,1269,1271,1274</elem>
			<elem id="17">6,8,56,5,1278,1287,1276,1272,1275,1271</elem>
			<elem id="18">56,8,58,5,1287,1286,1520,1271,1275,1274</elem>
			<elem id="19">57,59,9,60,1524,1289,1290,1525,1533,1291</elem>
			<elem id="20">7,57,9,60,1279,1290,1283,1284,1525,1291</elem>
<!-- ... 3436 like lines cut -->
		</Elements>
		<NodeSet name="FixedFluidVelocity01">
			<n id="1"/>
			<n id="2"/>
			<n id="3"/>
			<n id="4"/>
			<n id="5"/>
			<n id="6"/>
			<n id="7"/>
			<n id="8"/>
			<n id="9"/>
			<n id="10"/>
			<n id="11"/>
			<n id="12"/>
			<n id="13"/>
			<n id="14"/>
			<n id="15"/>
			<n id="16"/>
			<n id="17"/>
			<n id="18"/>
			<n id="19"/>
			<n id="20"/>
<!-- ... 1285 like lines cut -->
		</NodeSet>
		<NodeSet name="FixedFluidVelocity02">
			<n id="49"/>
			<n id="50"/>
			<n id="99"/>
			<n id="100"/>
			<n id="149"/>
			<n id="150"/>
			<n id="199"/>
			<n id="200"/>
			<n id="249"/>
			<n id="250"/>
			<n id="299"/>
			<n id="300"/>
			<n id="349"/>
			<n id="350"/>
			<n id="399"/>
			<n id="400"/>
			<n id="449"/>
			<n id="450"/>
			<n id="499"/>
			<n id="500"/>
<!-- ... 127 like lines cut -->
		</NodeSet>
		<NodeSet name="FixedFluidDilatation01">
			<n id="49"/>
			<n id="50"/>
			<n id="1249"/>
			<n id="1250"/>
			<n id="1492"/>
			<n id="7203"/>
			<n id="49"/>
			<n id="50"/>
			<n id="1249"/>
			<n id="1250"/>
			<n id="1492"/>
			<n id="7203"/>
		</NodeSet>
		<NodeSet name="FixedFluidVelocity03">
			<n id="1"/>
			<n id="2"/>
			<n id="3"/>
			<n id="4"/>
			<n id="5"/>
			<n id="6"/>
			<n id="7"/>
			<n id="8"/>
			<n id="9"/>
			<n id="10"/>
			<n id="11"/>
			<n id="12"/>
			<n id="13"/>
			<n id="14"/>
			<n id="15"/>
			<n id="16"/>
			<n id="17"/>
			<n id="18"/>
			<n id="19"/>
			<n id="20"/>
<!-- ... 9584 like lines cut -->
		</NodeSet>
		<NodeSet name="PrescribedBC10">
			<n id="49"/>
			<n id="50"/>
			<n id="99"/>
			<n id="100"/>
			<n id="149"/>
			<n id="150"/>
			<n id="199"/>
			<n id="200"/>
			<n id="249"/>
			<n id="250"/>
			<n id="299"/>
			<n id="300"/>
			<n id="349"/>
			<n id="350"/>
			<n id="399"/>
			<n id="400"/>
			<n id="449"/>
			<n id="450"/>
			<n id="499"/>
			<n id="500"/>
<!-- ... 127 like lines cut -->
		</NodeSet>
	</Mesh>
	<MeshDomains>
		<SolidDomain name="Part1" mat="Material1"/>
	</MeshDomains>
	<Boundary>
		<bc name="FixedFluidVelocity01" type="fix" node_set="FixedFluidVelocity01">
			<dofs>wx,wy,wz</dofs>
		</bc>
		<bc name="FixedFluidVelocity02" type="fix" node_set="FixedFluidVelocity02">
			<dofs>wx,wz</dofs>
		</bc>
		<bc name="FixedFluidDilatation01" type="fix" node_set="FixedFluidDilatation01">
			<dofs>ef</dofs>
		</bc>
		<bc name="FixedFluidVelocity03" type="fix" node_set="FixedFluidVelocity03">
			<dofs>wz</dofs>
		</bc>
		<bc name="PrescribedBC10" type="prescribe" node_set="PrescribedBC10">
			<dof>wx</dof>
			<scale lc="2">1</scale>
			<relative>0</relative>
		</bc>
	</Boundary>
	<LoadData>
		<load_controller id="1" type="loadcurve">
			<interpolate>STEP</interpolate>
			<points>
				<point>0,0</point>
				<point>1,0.1</point>
				<point>2,0.1</point>
				<point>10,1</point>
				<point>100,10</point>
				<point>1000,100</point>
			</points>
		</load_controller>
		<load_controller id="2" type="loadcurve">
			<interpolate>SMOOTH</interpolate>
			<points>
				<point>0,0</point>
				<point>1,1</point>
			</points>
		</load_controller>
	</LoadData>
	<Output>
		<plotfile type="febio">
			<var type="displacement"/>
			<var type="fluid pressure"/>
			<var type="fluid acceleration"/>
			<var type="fluid dilatation"/>
			<var type="fluid rate of deformation"/>
			<var type="fluid stress"/>
			<var type="fluid velocity"/>
			<var type="fluid vorticity"/>
			<var type="nodal fluid velocity"/>
		</plotfile>
	</Output>
</febio_spec>
