<?xml version="1.0" encoding="ISO-8859-1"?>
<febio_spec version="3.0">
	<Module type="fluid"/>
	<Control>
		<analysis>DYNAMIC</analysis>
		<time_steps>50</time_steps>
		<step_size>1</step_size>
		<solver>
			<max_refs>5</max_refs>
			<max_ups>50</max_ups>
			<diverge_reform>0</diverge_reform>
			<reform_each_time_step>0</reform_each_time_step>
			<vtol>0.001</vtol>
			<ftol>0.001</ftol>
			<etol>0.01</etol>
			<rtol>0.001</rtol>
			<lstol>0.9</lstol>
			<min_residual>0</min_residual>
			<max_residual>1e+20</max_residual>
			<rhoi>0</rhoi>
			<qnmethod>BROYDEN</qnmethod>
			<equation_scheme>1</equation_scheme>
			<symmetric_stiffness>0</symmetric_stiffness>
		</solver>
		<time_stepper>
			<dtmin>0.01</dtmin>
			<dtmax>1</dtmax>
			<max_retries>5</max_retries>
			<opt_iter>50</opt_iter>
		</time_stepper>
	</Control>
	<Globals>
		<Constants>
			<T>0</T>
			<R>0</R>
			<Fc>0</Fc>
		</Constants>
	</Globals>
	<Material>
		<material id="1" name="Material1" type="fluid">
			<density>1</density>
			<k>1e+09</k>
			<viscous type="Newtonian fluid">
				<mu>0.001</mu>
				<kappa>0</kappa>
			</viscous>
		</material>
	</Material>
	<Mesh>
		<Nodes name="Object01">
			<node id="1">0,-1.0557107,-0.055710678</node>
			<node id="2">0,-1.0574524,-0.043089319</node>
			<node id="3">0,-1.0588521,-0.029426068</node>
			<node id="4">0,-1.0597776,-0.014944411</node>
			<node id="5">0,-1.0601041,0</node>
			<node id="6">0,-1.0597776,0.014944411</node>
			<node id="7">0,-1.0588521,0.029426068</node>
			<node id="8">0,-1.0574524,0.043089319</node>
			<node id="9">0,-1.0557107,0.055710678</node>
			<node id="10">0,-1.0430893,-0.057452426</node>
			<node id="11">0,-1.0445955,-0.044595509</node>
			<node id="12">0,-1.0458625,-0.030575008</node>
			<node id="13">0,-1.0467441,-0.015581356</node>
			<node id="14">0,-1.0470668,0</node>
			<node id="15">0,-1.0467441,0.015581356</node>
			<node id="16">0,-1.0458625,0.030575008</node>
			<node id="17">0,-1.0445955,0.044595509</node>
			<node id="18">0,-1.0430893,0.057452426</node>
			<node id="19">0,-1.0294261,-0.058852137</node>
			<node id="20">0,-1.030575,-0.045862512</node>
<!-- ... 8401 like lines cut -->
		</Nodes>
		<Elements type="hex8" name="Part3">
			<elem id="1">1,10,11,2,338,347,348,339</elem>
			<elem id="2">10,19,20,11,347,356,357,348</elem>
			<elem id="3">19,28,29,20,356,365,366,357</elem>
			<elem id="4">28,37,38,29,365,374,375,366</elem>
			<elem id="5">37,46,47,38,374,383,384,375</elem>
			<elem id="6">46,55,56,47,383,392,393,384</elem>
			<elem id="7">55,64,65,56,392,401,402,393</elem>
			<elem id="8">64,73,74,65,401,410,411,402</elem>
			<elem id="9">2,11,12,3,339,348,349,340</elem>
			<elem id="10">11,20,21,12,348,357,358,349</elem>
			<elem id="11">20,29,30,21,357,366,367,358</elem>
			<elem id="12">29,38,39,30,366,375,376,367</elem>
			<elem id="13">38,47,48,39,375,384,385,376</elem>
			<elem id="14">47,56,57,48,384,393,394,385</elem>
			<elem id="15">56,65,66,57,393,402,403,394</elem>
			<elem id="16">65,74,75,66,402,411,412,403</elem>
			<elem id="17">3,12,13,4,340,349,350,341</elem>
			<elem id="18">12,21,22,13,349,358,359,350</elem>
			<elem id="19">21,30,31,22,358,367,368,359</elem>
			<elem id="20">30,39,40,31,367,376,377,368</elem>
<!-- ... 7660 like lines cut -->
		</Elements>
		<NodeSet name="FixedFluidVelocity1">
			<n id="306"/>
			<n id="307"/>
			<n id="308"/>
			<n id="309"/>
			<n id="310"/>
			<n id="311"/>
			<n id="312"/>
			<n id="313"/>
			<n id="314"/>
			<n id="315"/>
			<n id="316"/>
			<n id="317"/>
			<n id="318"/>
			<n id="319"/>
			<n id="320"/>
			<n id="321"/>
			<n id="322"/>
			<n id="323"/>
			<n id="324"/>
			<n id="325"/>
<!-- ... 652 like lines cut -->
		</NodeSet>
		<NodeSet name="FixedFluidDilatation1">
			<n id="6741"/>
			<n id="6742"/>
			<n id="6743"/>
			<n id="6744"/>
			<n id="6745"/>
			<n id="6746"/>
			<n id="6747"/>
			<n id="6748"/>
			<n id="6749"/>
			<n id="6750"/>
			<n id="6751"/>
			<n id="6752"/>
			<n id="6753"/>
			<n id="6754"/>
			<n id="6755"/>
			<n id="6756"/>
			<n id="6757"/>
			<n id="6758"/>
			<n id="6759"/>
			<n id="6760"/>
<!-- ... 381 like lines cut -->
		</NodeSet>
		<Surface name="FluidFlowResistance1">
			<quad4 id="1">2,11,10,1</quad4>
			<quad4 id="2">11,20,19,10</quad4>
			<quad4 id="3">20,29,28,19</quad4>
			<quad4 id="4">29,38,37,28</quad4>
			<quad4 id="5">38,47,46,37</quad4>
			<quad4 id="6">47,56,55,46</quad4>
			<quad4 id="7">56,65,64,55</quad4>
			<quad4 id="8">65,74,73,64</quad4>
			<quad4 id="9">3,12,11,2</quad4>
			<quad4 id="10">12,21,20,11</quad4>
			<quad4 id="11">21,30,29,20</quad4>
			<quad4 id="12">30,39,38,29</quad4>
			<quad4 id="13">39,48,47,38</quad4>
			<quad4 id="14">48,57,56,47</quad4>
			<quad4 id="15">57,66,65,56</quad4>
			<quad4 id="16">66,75,74,65</quad4>
			<quad4 id="17">4,13,12,3</quad4>
			<quad4 id="18">13,22,21,12</quad4>
			<quad4 id="19">22,31,30,21</quad4>
			<quad4 id="20">31,40,39,30</quad4>
<!-- ... 364 like lines cut -->
		</Surface>
		<Surface name="FluidBackflowStabilization1">
			<quad4 id="1">6741,6750,6751,6742</quad4>
			<quad4 id="2">6750,6759,6760,6751</quad4>
			<quad4 id="3">6759,6768,6769,6760</quad4>
			<quad4 id="4">6768,6777,6778,6769</quad4>
			<quad4 id="5">6777,6786,6787,6778</quad4>
			<quad4 id="6">6786,6795,6796,6787</quad4>
			<quad4 id="7">6795,6804,6805,6796</quad4>
			<quad4 id="8">6804,6813,6814,6805</quad4>
			<quad4 id="9">6742,6751,6752,6743</quad4>
			<quad4 id="10">6751,6760,6761,6752</quad4>
			<quad4 id="11">6760,6769,6770,6761</quad4>
			<quad4 id="12">6769,6778,6779,6770</quad4>
			<quad4 id="13">6778,6787,6788,6779</quad4>
			<quad4 id="14">6787,6796,6797,6788</quad4>
			<quad4 id="15">6796,6805,6806,6797</quad4>
			<quad4 id="16">6805,6814,6815,6806</quad4>
			<quad4 id="17">6743,6752,6753,6744</quad4>
			<quad4 id="18">6752,6761,6762,6753</quad4>
			<quad4 id="19">6761,6770,6771,6762</quad4>
			<quad4 id="20">6770,6779,6780,6771</quad4>
<!-- ... 364 like lines cut -->
		</Surface>
		<Surface name="FluidTangentialStabilization1">
			<quad4 id="1">6741,6750,6751,6742</quad4>
			<quad4 id="2">6750,6759,6760,6751</quad4>
			<quad4 id="3">6759,6768,6769,6760</quad4>
			<quad4 id="4">6768,6777,6778,6769</quad4>
			<quad4 id="5">6777,6786,6787,6778</quad4>
			<quad4 id="6">6786,6795,6796,6787</quad4>
			<quad4 id="7">6795,6804,6805,6796</quad4>
			<quad4 id="8">6804,6813,6814,6805</quad4>
			<quad4 id="9">6742,6751,6752,6743</quad4>
			<quad4 id="10">6751,6760,6761,6752</quad4>
			<quad4 id="11">6760,6769,6770,6761</quad4>
			<quad4 id="12">6769,6778,6779,6770</quad4>
			<quad4 id="13">6778,6787,6788,6779</quad4>
			<quad4 id="14">6787,6796,6797,6788</quad4>
			<quad4 id="15">6796,6805,6806,6797</quad4>
			<quad4 id="16">6805,6814,6815,6806</quad4>
			<quad4 id="17">6743,6752,6753,6744</quad4>
			<quad4 id="18">6752,6761,6762,6753</quad4>
			<quad4 id="19">6761,6770,6771,6762</quad4>
			<quad4 id="20">6770,6779,6780,6771</quad4>
<!-- ... 364 like lines cut -->
		</Surface>
		<Surface name="NormalFlowConstraint1">
			<quad4 id="1">2,11,10,1</quad4>
			<quad4 id="2">11,20,19,10</quad4>
			<quad4 id="3">20,29,28,19</quad4>
			<quad4 id="4">29,38,37,28</quad4>
			<quad4 id="5">38,47,46,37</quad4>
			<quad4 id="6">47,56,55,46</quad4>
			<quad4 id="7">56,65,64,55</quad4>
			<quad4 id="8">65,74,73,64</quad4>
			<quad4 id="9">3,12,11,2</quad4>
			<quad4 id="10">12,21,20,11</quad4>
			<quad4 id="11">21,30,29,20</quad4>
			<quad4 id="12">30,39,38,29</quad4>
			<quad4 id="13">39,48,47,38</quad4>
			<quad4 id="14">48,57,56,47</quad4>
			<quad4 id="15">57,66,65,56</quad4>
			<quad4 id="16">66,75,74,65</quad4>
			<quad4 id="17">4,13,12,3</quad4>
			<quad4 id="18">13,22,21,12</quad4>
			<quad4 id="19">22,31,30,21</quad4>
			<quad4 id="20">31,40,39,30</quad4>
<!-- ... 364 like lines cut -->
		</Surface>
	</Mesh>
	<MeshDomains>
		<SolidDomain name="Part3" mat="Material1"/>
	</MeshDomains>
	<Boundary>
		<bc name="FixedFluidVelocity01" type="fix" node_set="FixedFluidVelocity1">
			<dofs>wx,wy,wz</dofs>
		</bc>
		<bc name="FixedFluidDilatation01" type="fix" node_set="FixedFluidDilatation1">
			<dofs>ef</dofs>
		</bc>
	</Boundary>
	<Loads>
		<surface_load name="FluidFlowResistance01" type="fluid resistance" surface="FluidFlowResistance1">
			<R lc="1">0</R>
			<pressure_offset lc="2">0.05</pressure_offset>
		</surface_load>
		<surface_load name="FluidBackflowStabilization01" type="fluid backflow stabilization" surface="FluidBackflowStabilization1">
			<beta lc="3">1</beta>
		</surface_load>
		<surface_load name="FluidTangentialStabilization01" type="fluid tangential stabilization" surface="FluidTangentialStabilization1">
			<beta lc="4">1</beta>
		</surface_load>
	</Loads>
	<Constraints>
		<constraint type="normal fluid flow" name="NormalFlowConstraint1" surface="NormalFlowConstraint1">
			<laugon>0</laugon>
			<tol>0.2</tol>
			<penalty>1000000</penalty>
			<minaug>0</minaug>
			<maxaug>0</maxaug>
			<rhs>0</rhs>
		</constraint>
	</Constraints>
	<LoadData>
		<load_controller id="1" type="loadcurve">
			<interpolate>SMOOTH</interpolate>
			<points>
				<point>0,0</point>
				<point>1,1</point>
			</points>
		</load_controller>
		<load_controller id="2" type="loadcurve">
			<interpolate>SMOOTH</interpolate>
			<points>
				<point>0,0</point>
				<point>1,1</point>
			</points>
		</load_controller>
		<load_controller id="3" type="loadcurve">
			<interpolate>SMOOTH</interpolate>
			<points>
				<point>0,0</point>
				<point>1,1</point>
			</points>
		</load_controller>
		<load_controller id="4" type="loadcurve">
			<interpolate>SMOOTH</interpolate>
			<points>
				<point>0,0</point>
				<point>1,1</point>
			</points>
		</load_controller>
	</LoadData>
	<Output>
		<plotfile type="febio">
			<var type="fluid pressure"/>
			<var type="fluid acceleration"/>
			<var type="fluid dilatation"/>
			<var type="fluid mass flow rate"/>
			<var type="fluid rate of deformation"/>
			<var type="fluid stress"/>
			<var type="fluid velocity"/>
			<var type="fluid volume ratio"/>
			<var type="fluid vorticity"/>
			<var type="nodal fluid velocity"/>
		</plotfile>
	</Output>
</febio_spec>
