<?xml version="1.0" encoding="ISO-8859-1"?>
<!--
"Parabolic normal flow through quarter-cylinder
-->
<febio_spec version="3.0">
	<Module type="fluid"/>
	<Control>
		<analysis>DYNAMIC</analysis>
		<time_steps>100</time_steps>
		<step_size>0.1</step_size>
		<solver>
			<max_refs>5</max_refs>
			<max_ups>50</max_ups>
			<diverge_reform>0</diverge_reform>
			<reform_each_time_step>0</reform_each_time_step>
			<vtol>0.001</vtol>
			<ftol>0.001</ftol>
			<etol>0.01</etol>
			<rtol>0.001</rtol>
			<lstol>0.9</lstol>
			<min_residual>1e-20</min_residual>
			<max_residual>1e+20</max_residual>
			<rhoi>0</rhoi>
			<qnmethod>BROYDEN</qnmethod>
			<equation_scheme>1</equation_scheme>
			<symmetric_stiffness>0</symmetric_stiffness>
		</solver>
		<time_stepper>
			<dtmin>0.01</dtmin>
			<dtmax>0.1</dtmax>
			<max_retries>5</max_retries>
			<opt_iter>50</opt_iter>
		</time_stepper>
	</Control>
	<Globals>
		<Constants>
			<T>0</T>
			<R>0</R>
			<Fc>0</Fc>
		</Constants>
	</Globals>
	<Material>
		<material id="1" name="Material1" type="fluid">
			<density>1</density>
			<k>1e+09</k>
			<viscous type="Newtonian fluid">
				<mu>0.001</mu>
				<kappa>0</kappa>
			</viscous>
		</material>
	</Material>
	<Mesh>
		<Nodes name="Object1">
			<node id="1">0,0,0</node>
			<node id="2">0.162030976,0,0</node>
			<node id="3">0.158917596,0.0316106747,0</node>
			<node id="4">0.149697103,0.062006569,0</node>
			<node id="5">0.134723834,0.0900195857,0</node>
			<node id="6">0.114573203,0.1145732,0</node>
			<node id="7">0.0900195893,0.134723831,0</node>
			<node id="8">0.062006573,0.149697101,0</node>
			<node id="9">0.031610679,0.158917595,0</node>
			<node id="10">4.34160324e-09,0.162030976,0</node>
			<node id="11">0.299757306,0,0</node>
			<node id="12">0.293997553,0.0584797483,0</node>
			<node id="13">0.27693964,0.114712153,0</node>
			<node id="14">0.249239092,0.166536234,0</node>
			<node id="15">0.211960426,0.211960421,0</node>
			<node id="16">0.16653624,0.249239088,0</node>
			<node id="17">0.11471216,0.276939637,0</node>
			<node id="18">0.0584797562,0.293997552,0</node>
			<node id="19">8.031966e-09,0.299757306,0</node>
			<node id="20">0.416824686,0,0</node>
<!-- ... 5925 like lines cut -->
		</Nodes>
		<Elements type="penta6" name="Part1">
			<elem id="1">1,2,3,146,147,148</elem>
			<elem id="2">1,3,4,146,148,149</elem>
			<elem id="3">1,4,5,146,149,150</elem>
			<elem id="4">1,5,6,146,150,151</elem>
			<elem id="5">1,6,7,146,151,152</elem>
			<elem id="6">1,7,8,146,152,153</elem>
			<elem id="7">1,8,9,146,153,154</elem>
			<elem id="8">1,9,10,146,154,155</elem>
			<elem id="9">146,147,148,291,292,293</elem>
			<elem id="10">146,148,149,291,293,294</elem>
			<elem id="11">146,149,150,291,294,295</elem>
			<elem id="12">146,150,151,291,295,296</elem>
			<elem id="13">146,151,152,291,296,297</elem>
			<elem id="14">146,152,153,291,297,298</elem>
			<elem id="15">146,153,154,291,298,299</elem>
			<elem id="16">146,154,155,291,299,300</elem>
			<elem id="17">291,292,293,436,437,438</elem>
			<elem id="18">291,293,294,436,438,439</elem>
			<elem id="19">291,294,295,436,439,440</elem>
			<elem id="20">291,295,296,436,440,441</elem>
<!-- ... 300 like lines cut -->
		</Elements>
		<Elements type="hex8" name="Part1__2">
			<elem id="321">2,11,12,3,147,156,157,148</elem>
			<elem id="322">3,12,13,4,148,157,158,149</elem>
			<elem id="323">4,13,14,5,149,158,159,150</elem>
			<elem id="324">5,14,15,6,150,159,160,151</elem>
			<elem id="325">6,15,16,7,151,160,161,152</elem>
			<elem id="326">7,16,17,8,152,161,162,153</elem>
			<elem id="327">8,17,18,9,153,162,163,154</elem>
			<elem id="328">9,18,19,10,154,163,164,155</elem>
			<elem id="329">11,20,21,12,156,165,166,157</elem>
			<elem id="330">12,21,22,13,157,166,167,158</elem>
			<elem id="331">13,22,23,14,158,167,168,159</elem>
			<elem id="332">14,23,24,15,159,168,169,160</elem>
			<elem id="333">15,24,25,16,160,169,170,161</elem>
			<elem id="334">16,25,26,17,161,170,171,162</elem>
			<elem id="335">17,26,27,18,162,171,172,163</elem>
			<elem id="336">18,27,28,19,163,172,173,164</elem>
			<elem id="337">20,29,30,21,165,174,175,166</elem>
			<elem id="338">21,30,31,22,166,175,176,167</elem>
			<elem id="339">22,31,32,23,167,176,177,168</elem>
			<elem id="340">23,32,33,24,168,177,178,169</elem>
<!-- ... 4780 like lines cut -->
		</Elements>
		<Surface name="FixedFluidVelocity1">
			<quad4 id="1">137,138,283,282</quad4>
			<quad4 id="2">138,139,284,283</quad4>
			<quad4 id="3">139,140,285,284</quad4>
			<quad4 id="4">140,141,286,285</quad4>
			<quad4 id="5">141,142,287,286</quad4>
			<quad4 id="6">142,143,288,287</quad4>
			<quad4 id="7">143,144,289,288</quad4>
			<quad4 id="8">144,145,290,289</quad4>
			<quad4 id="9">282,283,428,427</quad4>
			<quad4 id="10">283,284,429,428</quad4>
			<quad4 id="11">284,285,430,429</quad4>
			<quad4 id="12">285,286,431,430</quad4>
			<quad4 id="13">286,287,432,431</quad4>
			<quad4 id="14">287,288,433,432</quad4>
			<quad4 id="15">288,289,434,433</quad4>
			<quad4 id="16">289,290,435,434</quad4>
			<quad4 id="17">427,428,573,572</quad4>
			<quad4 id="18">428,429,574,573</quad4>
			<quad4 id="19">429,430,575,574</quad4>
			<quad4 id="20">430,431,576,575</quad4>
<!-- ... 300 like lines cut -->
		</Surface>
		<Surface name="FixedFluidDilatation1">
			<tri3 id="1">5801,5802,5803</tri3>
			<quad4 id="2">5802,5811,5812,5803</quad4>
			<quad4 id="3">5811,5820,5821,5812</quad4>
			<quad4 id="4">5820,5829,5830,5821</quad4>
			<quad4 id="5">5829,5838,5839,5830</quad4>
			<quad4 id="6">5838,5847,5848,5839</quad4>
			<quad4 id="7">5847,5856,5857,5848</quad4>
			<quad4 id="8">5856,5865,5866,5857</quad4>
			<quad4 id="9">5865,5874,5875,5866</quad4>
			<quad4 id="10">5874,5883,5884,5875</quad4>
			<quad4 id="11">5883,5892,5893,5884</quad4>
			<quad4 id="12">5892,5901,5902,5893</quad4>
			<quad4 id="13">5901,5910,5911,5902</quad4>
			<quad4 id="14">5910,5919,5920,5911</quad4>
			<quad4 id="15">5919,5928,5929,5920</quad4>
			<quad4 id="16">5928,5937,5938,5929</quad4>
			<tri3 id="17">5801,5803,5804</tri3>
			<quad4 id="18">5803,5812,5813,5804</quad4>
			<quad4 id="19">5812,5821,5822,5813</quad4>
			<quad4 id="20">5821,5830,5831,5822</quad4>
			<quad4 id="21">5830,5839,5840,5831</quad4>
			<quad4 id="22">5839,5848,5849,5840</quad4>
			<quad4 id="23">5848,5857,5858,5849</quad4>
			<quad4 id="24">5857,5866,5867,5858</quad4>
			<quad4 id="25">5866,5875,5876,5867</quad4>
			<quad4 id="26">5875,5884,5885,5876</quad4>
			<quad4 id="27">5884,5893,5894,5885</quad4>
			<quad4 id="28">5893,5902,5903,5894</quad4>
			<quad4 id="29">5902,5911,5912,5903</quad4>
			<quad4 id="30">5911,5920,5921,5912</quad4>
			<quad4 id="31">5920,5929,5930,5921</quad4>
			<quad4 id="32">5929,5938,5939,5930</quad4>
			<tri3 id="33">5801,5804,5805</tri3>
			<quad4 id="34">5804,5813,5814,5805</quad4>
			<quad4 id="35">5813,5822,5823,5814</quad4>
			<quad4 id="36">5822,5831,5832,5823</quad4>
			<quad4 id="37">5831,5840,5841,5832</quad4>
			<quad4 id="38">5840,5849,5850,5841</quad4>
			<quad4 id="39">5849,5858,5859,5850</quad4>
			<quad4 id="40">5858,5867,5868,5859</quad4>
			<quad4 id="41">5867,5876,5877,5868</quad4>
			<quad4 id="42">5876,5885,5886,5877</quad4>
			<quad4 id="43">5885,5894,5895,5886</quad4>
			<quad4 id="44">5894,5903,5904,5895</quad4>
			<quad4 id="45">5903,5912,5913,5904</quad4>
			<quad4 id="46">5912,5921,5922,5913</quad4>
			<quad4 id="47">5921,5930,5931,5922</quad4>
			<quad4 id="48">5930,5939,5940,5931</quad4>
			<tri3 id="49">5801,5805,5806</tri3>
			<quad4 id="50">5805,5814,5815,5806</quad4>
			<quad4 id="51">5814,5823,5824,5815</quad4>
			<quad4 id="52">5823,5832,5833,5824</quad4>
			<quad4 id="53">5832,5841,5842,5833</quad4>
			<quad4 id="54">5841,5850,5851,5842</quad4>
			<quad4 id="55">5850,5859,5860,5851</quad4>
			<quad4 id="56">5859,5868,5869,5860</quad4>
			<quad4 id="57">5868,5877,5878,5869</quad4>
			<quad4 id="58">5877,5886,5887,5878</quad4>
			<quad4 id="59">5886,5895,5896,5887</quad4>
			<quad4 id="60">5895,5904,5905,5896</quad4>
			<quad4 id="61">5904,5913,5914,5905</quad4>
			<quad4 id="62">5913,5922,5923,5914</quad4>
			<quad4 id="63">5922,5931,5932,5923</quad4>
			<quad4 id="64">5931,5940,5941,5932</quad4>
			<tri3 id="65">5801,5806,5807</tri3>
			<quad4 id="66">5806,5815,5816,5807</quad4>
			<quad4 id="67">5815,5824,5825,5816</quad4>
			<quad4 id="68">5824,5833,5834,5825</quad4>
			<quad4 id="69">5833,5842,5843,5834</quad4>
			<quad4 id="70">5842,5851,5852,5843</quad4>
			<quad4 id="71">5851,5860,5861,5852</quad4>
			<quad4 id="72">5860,5869,5870,5861</quad4>
			<quad4 id="73">5869,5878,5879,5870</quad4>
			<quad4 id="74">5878,5887,5888,5879</quad4>
			<quad4 id="75">5887,5896,5897,5888</quad4>
			<quad4 id="76">5896,5905,5906,5897</quad4>
			<quad4 id="77">5905,5914,5915,5906</quad4>
			<quad4 id="78">5914,5923,5924,5915</quad4>
			<quad4 id="79">5923,5932,5933,5924</quad4>
			<quad4 id="80">5932,5941,5942,5933</quad4>
			<tri3 id="81">5801,5807,5808</tri3>
			<quad4 id="82">5807,5816,5817,5808</quad4>
			<quad4 id="83">5816,5825,5826,5817</quad4>
			<quad4 id="84">5825,5834,5835,5826</quad4>
			<quad4 id="85">5834,5843,5844,5835</quad4>
			<quad4 id="86">5843,5852,5853,5844</quad4>
			<quad4 id="87">5852,5861,5862,5853</quad4>
			<quad4 id="88">5861,5870,5871,5862</quad4>
			<quad4 id="89">5870,5879,5880,5871</quad4>
			<quad4 id="90">5879,5888,5889,5880</quad4>
			<quad4 id="91">5888,5897,5898,5889</quad4>
			<quad4 id="92">5897,5906,5907,5898</quad4>
			<quad4 id="93">5906,5915,5916,5907</quad4>
			<quad4 id="94">5915,5924,5925,5916</quad4>
			<quad4 id="95">5924,5933,5934,5925</quad4>
			<quad4 id="96">5933,5942,5943,5934</quad4>
			<tri3 id="97">5801,5808,5809</tri3>
			<quad4 id="98">5808,5817,5818,5809</quad4>
			<quad4 id="99">5817,5826,5827,5818</quad4>
			<quad4 id="100">5826,5835,5836,5827</quad4>
			<quad4 id="101">5835,5844,5845,5836</quad4>
			<quad4 id="102">5844,5853,5854,5845</quad4>
			<quad4 id="103">5853,5862,5863,5854</quad4>
			<quad4 id="104">5862,5871,5872,5863</quad4>
			<quad4 id="105">5871,5880,5881,5872</quad4>
			<quad4 id="106">5880,5889,5890,5881</quad4>
			<quad4 id="107">5889,5898,5899,5890</quad4>
			<quad4 id="108">5898,5907,5908,5899</quad4>
			<quad4 id="109">5907,5916,5917,5908</quad4>
			<quad4 id="110">5916,5925,5926,5917</quad4>
			<quad4 id="111">5925,5934,5935,5926</quad4>
			<quad4 id="112">5934,5943,5944,5935</quad4>
			<tri3 id="113">5801,5809,5810</tri3>
			<quad4 id="114">5809,5818,5819,5810</quad4>
			<quad4 id="115">5818,5827,5828,5819</quad4>
			<quad4 id="116">5827,5836,5837,5828</quad4>
			<quad4 id="117">5836,5845,5846,5837</quad4>
			<quad4 id="118">5845,5854,5855,5846</quad4>
			<quad4 id="119">5854,5863,5864,5855</quad4>
			<quad4 id="120">5863,5872,5873,5864</quad4>
			<quad4 id="121">5872,5881,5882,5873</quad4>
			<quad4 id="122">5881,5890,5891,5882</quad4>
			<quad4 id="123">5890,5899,5900,5891</quad4>
			<quad4 id="124">5899,5908,5909,5900</quad4>
			<quad4 id="125">5908,5917,5918,5909</quad4>
			<quad4 id="126">5917,5926,5927,5918</quad4>
			<quad4 id="127">5926,5935,5936,5927</quad4>
			<quad4 id="128">5935,5944,5945,5936</quad4>
		</Surface>
		<Surface name="FixedFluidVelocity2">
			<quad4 id="1">146,155,10,1</quad4>
			<quad4 id="2">155,164,19,10</quad4>
			<quad4 id="3">164,173,28,19</quad4>
			<quad4 id="4">173,182,37,28</quad4>
			<quad4 id="5">182,191,46,37</quad4>
			<quad4 id="6">191,200,55,46</quad4>
			<quad4 id="7">200,209,64,55</quad4>
			<quad4 id="8">209,218,73,64</quad4>
			<quad4 id="9">218,227,82,73</quad4>
			<quad4 id="10">227,236,91,82</quad4>
			<quad4 id="11">236,245,100,91</quad4>
			<quad4 id="12">245,254,109,100</quad4>
			<quad4 id="13">254,263,118,109</quad4>
			<quad4 id="14">263,272,127,118</quad4>
			<quad4 id="15">272,281,136,127</quad4>
			<quad4 id="16">281,290,145,136</quad4>
			<quad4 id="17">291,300,155,146</quad4>
			<quad4 id="18">300,309,164,155</quad4>
			<quad4 id="19">309,318,173,164</quad4>
			<quad4 id="20">318,327,182,173</quad4>
<!-- ... 620 like lines cut -->
		</Surface>
		<Surface name="FixedFluidVelocity3">
			<quad4 id="1">1,2,147,146</quad4>
			<quad4 id="2">2,11,156,147</quad4>
			<quad4 id="3">11,20,165,156</quad4>
			<quad4 id="4">20,29,174,165</quad4>
			<quad4 id="5">29,38,183,174</quad4>
			<quad4 id="6">38,47,192,183</quad4>
			<quad4 id="7">47,56,201,192</quad4>
			<quad4 id="8">56,65,210,201</quad4>
			<quad4 id="9">65,74,219,210</quad4>
			<quad4 id="10">74,83,228,219</quad4>
			<quad4 id="11">83,92,237,228</quad4>
			<quad4 id="12">92,101,246,237</quad4>
			<quad4 id="13">101,110,255,246</quad4>
			<quad4 id="14">110,119,264,255</quad4>
			<quad4 id="15">119,128,273,264</quad4>
			<quad4 id="16">128,137,282,273</quad4>
			<quad4 id="17">146,147,292,291</quad4>
			<quad4 id="18">147,156,301,292</quad4>
			<quad4 id="19">156,165,310,301</quad4>
			<quad4 id="20">165,174,319,310</quad4>
<!-- ... 620 like lines cut -->
		</Surface>
		<Surface name="FluidNormalVelocity1">
			<tri3 id="1">1,3,2</tri3>
			<quad4 id="2">3,12,11,2</quad4>
			<quad4 id="3">12,21,20,11</quad4>
			<quad4 id="4">21,30,29,20</quad4>
			<quad4 id="5">30,39,38,29</quad4>
			<quad4 id="6">39,48,47,38</quad4>
			<quad4 id="7">48,57,56,47</quad4>
			<quad4 id="8">57,66,65,56</quad4>
			<quad4 id="9">66,75,74,65</quad4>
			<quad4 id="10">75,84,83,74</quad4>
			<quad4 id="11">84,93,92,83</quad4>
			<quad4 id="12">93,102,101,92</quad4>
			<quad4 id="13">102,111,110,101</quad4>
			<quad4 id="14">111,120,119,110</quad4>
			<quad4 id="15">120,129,128,119</quad4>
			<quad4 id="16">129,138,137,128</quad4>
			<tri3 id="17">1,4,3</tri3>
			<quad4 id="18">4,13,12,3</quad4>
			<quad4 id="19">13,22,21,12</quad4>
			<quad4 id="20">22,31,30,21</quad4>
			<quad4 id="21">31,40,39,30</quad4>
			<quad4 id="22">40,49,48,39</quad4>
			<quad4 id="23">49,58,57,48</quad4>
			<quad4 id="24">58,67,66,57</quad4>
			<quad4 id="25">67,76,75,66</quad4>
			<quad4 id="26">76,85,84,75</quad4>
			<quad4 id="27">85,94,93,84</quad4>
			<quad4 id="28">94,103,102,93</quad4>
			<quad4 id="29">103,112,111,102</quad4>
			<quad4 id="30">112,121,120,111</quad4>
			<quad4 id="31">121,130,129,120</quad4>
			<quad4 id="32">130,139,138,129</quad4>
			<tri3 id="33">1,5,4</tri3>
			<quad4 id="34">5,14,13,4</quad4>
			<quad4 id="35">14,23,22,13</quad4>
			<quad4 id="36">23,32,31,22</quad4>
			<quad4 id="37">32,41,40,31</quad4>
			<quad4 id="38">41,50,49,40</quad4>
			<quad4 id="39">50,59,58,49</quad4>
			<quad4 id="40">59,68,67,58</quad4>
			<quad4 id="41">68,77,76,67</quad4>
			<quad4 id="42">77,86,85,76</quad4>
			<quad4 id="43">86,95,94,85</quad4>
			<quad4 id="44">95,104,103,94</quad4>
			<quad4 id="45">104,113,112,103</quad4>
			<quad4 id="46">113,122,121,112</quad4>
			<quad4 id="47">122,131,130,121</quad4>
			<quad4 id="48">131,140,139,130</quad4>
			<tri3 id="49">1,6,5</tri3>
			<quad4 id="50">6,15,14,5</quad4>
			<quad4 id="51">15,24,23,14</quad4>
			<quad4 id="52">24,33,32,23</quad4>
			<quad4 id="53">33,42,41,32</quad4>
			<quad4 id="54">42,51,50,41</quad4>
			<quad4 id="55">51,60,59,50</quad4>
			<quad4 id="56">60,69,68,59</quad4>
			<quad4 id="57">69,78,77,68</quad4>
			<quad4 id="58">78,87,86,77</quad4>
			<quad4 id="59">87,96,95,86</quad4>
			<quad4 id="60">96,105,104,95</quad4>
			<quad4 id="61">105,114,113,104</quad4>
			<quad4 id="62">114,123,122,113</quad4>
			<quad4 id="63">123,132,131,122</quad4>
			<quad4 id="64">132,141,140,131</quad4>
			<tri3 id="65">1,7,6</tri3>
			<quad4 id="66">7,16,15,6</quad4>
			<quad4 id="67">16,25,24,15</quad4>
			<quad4 id="68">25,34,33,24</quad4>
			<quad4 id="69">34,43,42,33</quad4>
			<quad4 id="70">43,52,51,42</quad4>
			<quad4 id="71">52,61,60,51</quad4>
			<quad4 id="72">61,70,69,60</quad4>
			<quad4 id="73">70,79,78,69</quad4>
			<quad4 id="74">79,88,87,78</quad4>
			<quad4 id="75">88,97,96,87</quad4>
			<quad4 id="76">97,106,105,96</quad4>
			<quad4 id="77">106,115,114,105</quad4>
			<quad4 id="78">115,124,123,114</quad4>
			<quad4 id="79">124,133,132,123</quad4>
			<quad4 id="80">133,142,141,132</quad4>
			<tri3 id="81">1,8,7</tri3>
			<quad4 id="82">8,17,16,7</quad4>
			<quad4 id="83">17,26,25,16</quad4>
			<quad4 id="84">26,35,34,25</quad4>
			<quad4 id="85">35,44,43,34</quad4>
			<quad4 id="86">44,53,52,43</quad4>
			<quad4 id="87">53,62,61,52</quad4>
			<quad4 id="88">62,71,70,61</quad4>
			<quad4 id="89">71,80,79,70</quad4>
			<quad4 id="90">80,89,88,79</quad4>
			<quad4 id="91">89,98,97,88</quad4>
			<quad4 id="92">98,107,106,97</quad4>
			<quad4 id="93">107,116,115,106</quad4>
			<quad4 id="94">116,125,124,115</quad4>
			<quad4 id="95">125,134,133,124</quad4>
			<quad4 id="96">134,143,142,133</quad4>
			<tri3 id="97">1,9,8</tri3>
			<quad4 id="98">9,18,17,8</quad4>
			<quad4 id="99">18,27,26,17</quad4>
			<quad4 id="100">27,36,35,26</quad4>
			<quad4 id="101">36,45,44,35</quad4>
			<quad4 id="102">45,54,53,44</quad4>
			<quad4 id="103">54,63,62,53</quad4>
			<quad4 id="104">63,72,71,62</quad4>
			<quad4 id="105">72,81,80,71</quad4>
			<quad4 id="106">81,90,89,80</quad4>
			<quad4 id="107">90,99,98,89</quad4>
			<quad4 id="108">99,108,107,98</quad4>
			<quad4 id="109">108,117,116,107</quad4>
			<quad4 id="110">117,126,125,116</quad4>
			<quad4 id="111">126,135,134,125</quad4>
			<quad4 id="112">135,144,143,134</quad4>
			<tri3 id="113">1,10,9</tri3>
			<quad4 id="114">10,19,18,9</quad4>
			<quad4 id="115">19,28,27,18</quad4>
			<quad4 id="116">28,37,36,27</quad4>
			<quad4 id="117">37,46,45,36</quad4>
			<quad4 id="118">46,55,54,45</quad4>
			<quad4 id="119">55,64,63,54</quad4>
			<quad4 id="120">64,73,72,63</quad4>
			<quad4 id="121">73,82,81,72</quad4>
			<quad4 id="122">82,91,90,81</quad4>
			<quad4 id="123">91,100,99,90</quad4>
			<quad4 id="124">100,109,108,99</quad4>
			<quad4 id="125">109,118,117,108</quad4>
			<quad4 id="126">118,127,126,117</quad4>
			<quad4 id="127">127,136,135,126</quad4>
			<quad4 id="128">136,145,144,135</quad4>
		</Surface>
	</Mesh>
	<MeshDomains>
		<SolidDomain name="Part1" mat="Material1"/>
		<SolidDomain name="Part1__2" mat="Material1"/>
	</MeshDomains>
	<Boundary>
		<bc name="FixedFluidVelocity1" type="fix" node_set="@surface:FixedFluidVelocity1">
			<dofs>wx,wy,wz</dofs>
		</bc>
		<bc name="FixedFluidDilatation1" type="fix" node_set="@surface:FixedFluidDilatation1">
			<dofs>ef</dofs>
		</bc>
		<bc name="FixedFluidVelocity2" type="fix" node_set="@surface:FixedFluidVelocity2">
			<dofs>wx</dofs>
		</bc>
		<bc name="FixedFluidVelocity3" type="fix" node_set="@surface:FixedFluidVelocity3">
			<dofs>wy</dofs>
		</bc>
	</Boundary>
	<Loads>
		<surface_load name="FluidNormalVelocity1" type="fluid normal velocity" surface="FluidNormalVelocity1">
			<velocity lc="1">-1</velocity>
			<prescribe_nodal_velocities>1</prescribe_nodal_velocities>
			<parabolic>1</parabolic>
			<prescribe_rim_pressure>1</prescribe_rim_pressure>
		</surface_load>
	</Loads>
	<LoadData>
		<load_controller id="1" type="loadcurve">
			<interpolate>SMOOTH</interpolate>
			<points>
				<point>0,0</point>
				<point>1,1</point>
			</points>
		</load_controller>
	</LoadData>
	<Output>
		<plotfile type="febio">
			<var type="displacement"/>
			<var type="fluid acceleration"/>
			<var type="fluid dilatation"/>
			<var type="fluid pressure"/>
			<var type="fluid rate of deformation"/>
			<var type="fluid stress"/>
			<var type="fluid velocity"/>
			<var type="fluid volume ratio"/>
			<var type="fluid vorticity"/>
			<var type="nodal fluid velocity"/>
		</plotfile>
	</Output>
</febio_spec>
