<?xml version="1.0" encoding="ISO-8859-1"?>
<!--
Blood flow through wedge with 0 pressure outlet, pulsatile
inlet. Newtonian fluid with neoHookean
-->
<febio_spec version="3.0">
	<Module type="fluid-FSI"/>
	<Control>
		<analysis>DYNAMIC</analysis>
		<time_steps>500</time_steps>
		<step_size>0.001</step_size>
		<solver>
			<max_refs>10</max_refs>
			<max_ups>25</max_ups>
			<diverge_reform>1</diverge_reform>
			<reform_each_time_step>1</reform_each_time_step>
			<dtol>0.001</dtol>
			<vtol>0.001</vtol>
			<ftol>0.001</ftol>
			<etol>0.01</etol>
			<rtol>0.001</rtol>
			<lstol>0.9</lstol>
			<min_residual>1e-20</min_residual>
			<max_residual>1e+20</max_residual>
			<rhoi>0</rhoi>
			<qnmethod>BROYDEN</qnmethod>
			<symmetric_stiffness>0</symmetric_stiffness>
		</solver>
		<time_stepper>
			<dtmin>0.0001</dtmin>
			<dtmax>0.001</dtmax>
			<max_retries>5</max_retries>
			<opt_iter>50</opt_iter>
		</time_stepper>
	</Control>
	<Globals>
		<Constants>
			<T>0</T>
			<R>0</R>
			<Fc>0</Fc>
		</Constants>
	</Globals>
	<Material>
		<material id="1" name="Fluid" type="fluid-FSI">
			<fluid type="fluid">
				<density>1060</density>
				<k>2.2e+09</k>
				<viscous type="Newtonian fluid">
					<mu>0.004</mu>
					<kappa>0</kappa>
				</viscous>
			</fluid>
			<solid type="neo-Hookean">
				<density>0</density>
				<E>1e-09</E>
				<v>0</v>
			</solid>
		</material>
		<material id="2" name="Solid" type="neo-Hookean">
			<density>1000</density>
			<E>600000</E>
			<v>0.3</v>
		</material>
	</Material>
	<Mesh>
		<Nodes name="Object01">
			<node id="1">0,0,0</node>
			<node id="2">0.00081067936,0,0</node>
			<node id="3">0.00080956836,4.2427679e-05,0</node>
			<node id="4">0.0014186889,0,0</node>
			<node id="5">0.0014167446,7.4248438e-05,0</node>
			<node id="6">0.001874696,0,0</node>
			<node id="7">0.0018721268,9.8114008e-05,0</node>
			<node id="8">0.0022167014,0,0</node>
			<node id="9">0.0022136635,0.00011601318,0</node>
			<node id="10">0.0024732054,0,0</node>
			<node id="11">0.002469816,0.00012943757,0</node>
			<node id="12">0.0026655834,0,0</node>
			<node id="13">0.0026619303,0.00013950585,0</node>
			<node id="14">0.0028098669,0,0</node>
			<node id="15">0.0028060161,0.00014705707,0</node>
			<node id="16">0.0029180796,0,0</node>
			<node id="17">0.0029140804,0.00015272048,0</node>
			<node id="18">0.002999239,0,0</node>
			<node id="19">0.0029951287,0.00015696804,0</node>
			<node id="20">0.0030601086,0,0</node>
<!-- ... 1333 like lines cut -->
		</Nodes>
		<Elements type="penta6" name="Part1">
			<elem id="1">1,2,3,24,25,26</elem>
			<elem id="2">24,25,26,49,50,51</elem>
			<elem id="3">49,50,51,74,75,76</elem>
			<elem id="4">74,75,76,99,100,101</elem>
			<elem id="5">99,100,101,124,125,126</elem>
			<elem id="6">124,125,126,149,150,151</elem>
			<elem id="7">149,150,151,174,175,176</elem>
			<elem id="8">174,175,176,199,200,201</elem>
			<elem id="9">199,200,201,224,225,226</elem>
			<elem id="10">224,225,226,249,250,251</elem>
			<elem id="11">249,250,251,274,275,276</elem>
			<elem id="12">274,275,276,299,300,301</elem>
			<elem id="13">299,300,301,324,325,326</elem>
			<elem id="14">324,325,326,349,350,351</elem>
			<elem id="15">349,350,351,374,375,376</elem>
			<elem id="16">374,375,376,399,400,401</elem>
			<elem id="17">399,400,401,424,425,426</elem>
			<elem id="18">424,425,426,449,450,451</elem>
			<elem id="19">449,450,451,474,475,476</elem>
			<elem id="20">474,475,476,499,500,501</elem>
<!-- ... 20 like lines cut -->
		</Elements>
		<Elements type="hex8" name="Part1__2">
			<elem id="41">2,4,5,3,25,27,28,26</elem>
			<elem id="42">4,6,7,5,27,29,30,28</elem>
			<elem id="43">6,8,9,7,29,31,32,30</elem>
			<elem id="44">8,10,11,9,31,33,34,32</elem>
			<elem id="45">10,12,13,11,33,35,36,34</elem>
			<elem id="46">12,14,15,13,35,37,38,36</elem>
			<elem id="47">14,16,17,15,37,39,40,38</elem>
			<elem id="48">16,18,19,17,39,41,42,40</elem>
			<elem id="49">18,20,21,19,41,43,44,42</elem>
			<elem id="50">20,22,23,21,43,45,46,44</elem>
			<elem id="51">22,1022,1027,23,45,47,48,46</elem>
			<elem id="52">25,27,28,26,50,52,53,51</elem>
			<elem id="53">27,29,30,28,52,54,55,53</elem>
			<elem id="54">29,31,32,30,54,56,57,55</elem>
			<elem id="55">31,33,34,32,56,58,59,57</elem>
			<elem id="56">33,35,36,34,58,60,61,59</elem>
			<elem id="57">35,37,38,36,60,62,63,61</elem>
			<elem id="58">37,39,40,38,62,64,65,63</elem>
			<elem id="59">39,41,42,40,64,66,67,65</elem>
			<elem id="60">41,43,44,42,66,68,69,67</elem>
<!-- ... 420 like lines cut -->
		</Elements>
		<Elements type="hex8" name="Part3">
			<elem id="481">1022,1023,1028,1027,47,1032,1036,48</elem>
			<elem id="482">1023,1024,1029,1028,1032,1033,1037,1036</elem>
			<elem id="483">1024,1025,1030,1029,1033,1034,1038,1037</elem>
			<elem id="484">1025,1026,1031,1030,1034,1035,1039,1038</elem>
			<elem id="485">47,1032,1036,48,72,1040,1044,73</elem>
			<elem id="486">1032,1033,1037,1036,1040,1041,1045,1044</elem>
			<elem id="487">1033,1034,1038,1037,1041,1042,1046,1045</elem>
			<elem id="488">1034,1035,1039,1038,1042,1043,1047,1046</elem>
			<elem id="489">72,1040,1044,73,97,1048,1052,98</elem>
			<elem id="490">1040,1041,1045,1044,1048,1049,1053,1052</elem>
			<elem id="491">1041,1042,1046,1045,1049,1050,1054,1053</elem>
			<elem id="492">1042,1043,1047,1046,1050,1051,1055,1054</elem>
			<elem id="493">97,1048,1052,98,122,1056,1060,123</elem>
			<elem id="494">1048,1049,1053,1052,1056,1057,1061,1060</elem>
			<elem id="495">1049,1050,1054,1053,1057,1058,1062,1061</elem>
			<elem id="496">1050,1051,1055,1054,1058,1059,1063,1062</elem>
			<elem id="497">122,1056,1060,123,147,1064,1068,148</elem>
			<elem id="498">1056,1057,1061,1060,1064,1065,1069,1068</elem>
			<elem id="499">1057,1058,1062,1061,1065,1066,1070,1069</elem>
			<elem id="500">1058,1059,1063,1062,1066,1067,1071,1070</elem>
<!-- ... 140 like lines cut -->
		</Elements>
		<NodeSet name="FixedDisplacement1">
			<n id="1"/>
			<n id="24"/>
			<n id="49"/>
			<n id="74"/>
			<n id="99"/>
			<n id="124"/>
			<n id="149"/>
			<n id="174"/>
			<n id="199"/>
			<n id="224"/>
			<n id="249"/>
			<n id="274"/>
			<n id="299"/>
			<n id="324"/>
			<n id="349"/>
			<n id="374"/>
			<n id="399"/>
			<n id="424"/>
			<n id="449"/>
			<n id="474"/>
<!-- ... 21 like lines cut -->
		</NodeSet>
		<NodeSet name="FixedDisplacement2">
			<n id="1"/>
			<n id="2"/>
			<n id="4"/>
			<n id="6"/>
			<n id="8"/>
			<n id="10"/>
			<n id="12"/>
			<n id="14"/>
			<n id="16"/>
			<n id="18"/>
			<n id="20"/>
			<n id="22"/>
			<n id="24"/>
			<n id="25"/>
			<n id="27"/>
			<n id="29"/>
			<n id="31"/>
			<n id="33"/>
			<n id="35"/>
			<n id="37"/>
<!-- ... 1374 like lines cut -->
		</NodeSet>
		<NodeSet name="FixedDisplacement3">
			<n id="1"/>
			<n id="2"/>
			<n id="3"/>
			<n id="4"/>
			<n id="5"/>
			<n id="6"/>
			<n id="7"/>
			<n id="8"/>
			<n id="9"/>
			<n id="10"/>
			<n id="11"/>
			<n id="12"/>
			<n id="13"/>
			<n id="14"/>
			<n id="15"/>
			<n id="16"/>
			<n id="17"/>
			<n id="18"/>
			<n id="19"/>
			<n id="20"/>
<!-- ... 244 like lines cut -->
		</NodeSet>
		<NodeSet name="FixedFluidVelocity1">
			<n id="47"/>
			<n id="48"/>
			<n id="72"/>
			<n id="73"/>
			<n id="97"/>
			<n id="98"/>
			<n id="122"/>
			<n id="123"/>
			<n id="147"/>
			<n id="148"/>
			<n id="172"/>
			<n id="173"/>
			<n id="197"/>
			<n id="198"/>
			<n id="222"/>
			<n id="223"/>
			<n id="247"/>
			<n id="248"/>
			<n id="272"/>
			<n id="273"/>
<!-- ... 62 like lines cut -->
		</NodeSet>
		<NodeSet name="PrescribedFluidDilatation1">
			<n id="1022"/>
			<n id="1027"/>
		</NodeSet>
		<Surface name="FluidNormalVelocity1">
			<tri3 id="1">1,3,2</tri3>
			<quad4 id="2">3,5,4,2</quad4>
			<quad4 id="3">5,7,6,4</quad4>
			<quad4 id="4">7,9,8,6</quad4>
			<quad4 id="5">9,11,10,8</quad4>
			<quad4 id="6">11,13,12,10</quad4>
			<quad4 id="7">13,15,14,12</quad4>
			<quad4 id="8">15,17,16,14</quad4>
			<quad4 id="9">17,19,18,16</quad4>
			<quad4 id="10">19,21,20,18</quad4>
			<quad4 id="11">21,23,22,20</quad4>
			<quad4 id="12">23,1027,1022,22</quad4>
		</Surface>
		<Surface name="FluidFlowResistance1">
			<tri3 id="1">999,1000,1001</tri3>
			<quad4 id="2">1000,1002,1003,1001</quad4>
			<quad4 id="3">1002,1004,1005,1003</quad4>
			<quad4 id="4">1004,1006,1007,1005</quad4>
			<quad4 id="5">1006,1008,1009,1007</quad4>
			<quad4 id="6">1008,1010,1011,1009</quad4>
			<quad4 id="7">1010,1012,1013,1011</quad4>
			<quad4 id="8">1012,1014,1015,1013</quad4>
			<quad4 id="9">1014,1016,1017,1015</quad4>
			<quad4 id="10">1016,1018,1019,1017</quad4>
			<quad4 id="11">1018,1020,1021,1019</quad4>
			<quad4 id="12">1020,1344,1349,1021</quad4>
		</Surface>
		<Surface name="FluidBackflowStabilization1">
			<tri3 id="1">999,1000,1001</tri3>
			<quad4 id="2">1000,1002,1003,1001</quad4>
			<quad4 id="3">1002,1004,1005,1003</quad4>
			<quad4 id="4">1004,1006,1007,1005</quad4>
			<quad4 id="5">1006,1008,1009,1007</quad4>
			<quad4 id="6">1008,1010,1011,1009</quad4>
			<quad4 id="7">1010,1012,1013,1011</quad4>
			<quad4 id="8">1012,1014,1015,1013</quad4>
			<quad4 id="9">1014,1016,1017,1015</quad4>
			<quad4 id="10">1016,1018,1019,1017</quad4>
			<quad4 id="11">1018,1020,1021,1019</quad4>
			<quad4 id="12">1020,1344,1349,1021</quad4>
		</Surface>
		<Surface name="FluidTangentialStabilization1">
			<tri3 id="1">999,1000,1001</tri3>
			<quad4 id="2">1000,1002,1003,1001</quad4>
			<quad4 id="3">1002,1004,1005,1003</quad4>
			<quad4 id="4">1004,1006,1007,1005</quad4>
			<quad4 id="5">1006,1008,1009,1007</quad4>
			<quad4 id="6">1008,1010,1011,1009</quad4>
			<quad4 id="7">1010,1012,1013,1011</quad4>
			<quad4 id="8">1012,1014,1015,1013</quad4>
			<quad4 id="9">1014,1016,1017,1015</quad4>
			<quad4 id="10">1016,1018,1019,1017</quad4>
			<quad4 id="11">1018,1020,1021,1019</quad4>
			<quad4 id="12">1020,1344,1349,1021</quad4>
		</Surface>
		<Surface name="FSIInterfaceTraction1">
			<quad4 id="1">1022,1027,48,47</quad4>
			<quad4 id="2">47,48,73,72</quad4>
			<quad4 id="3">72,73,98,97</quad4>
			<quad4 id="4">97,98,123,122</quad4>
			<quad4 id="5">122,123,148,147</quad4>
			<quad4 id="6">147,148,173,172</quad4>
			<quad4 id="7">172,173,198,197</quad4>
			<quad4 id="8">197,198,223,222</quad4>
			<quad4 id="9">222,223,248,247</quad4>
			<quad4 id="10">247,248,273,272</quad4>
			<quad4 id="11">272,273,298,297</quad4>
			<quad4 id="12">297,298,323,322</quad4>
			<quad4 id="13">322,323,348,347</quad4>
			<quad4 id="14">347,348,373,372</quad4>
			<quad4 id="15">372,373,398,397</quad4>
			<quad4 id="16">397,398,423,422</quad4>
			<quad4 id="17">422,423,448,447</quad4>
			<quad4 id="18">447,448,473,472</quad4>
			<quad4 id="19">472,473,498,497</quad4>
			<quad4 id="20">497,498,523,522</quad4>
<!-- ... 20 like lines cut -->
		</Surface>
		<Surface name="SymmetryPlane1">
			<quad4 id="1">1,24,26,3</quad4>
			<quad4 id="2">5,3,26,28</quad4>
			<quad4 id="3">7,5,28,30</quad4>
			<quad4 id="4">9,7,30,32</quad4>
			<quad4 id="5">11,9,32,34</quad4>
			<quad4 id="6">13,11,34,36</quad4>
			<quad4 id="7">15,13,36,38</quad4>
			<quad4 id="8">17,15,38,40</quad4>
			<quad4 id="9">19,17,40,42</quad4>
			<quad4 id="10">21,19,42,44</quad4>
			<quad4 id="11">23,21,44,46</quad4>
			<quad4 id="12">1027,23,46,48</quad4>
			<quad4 id="13">24,49,51,26</quad4>
			<quad4 id="14">28,26,51,53</quad4>
			<quad4 id="15">30,28,53,55</quad4>
			<quad4 id="16">32,30,55,57</quad4>
			<quad4 id="17">34,32,57,59</quad4>
			<quad4 id="18">36,34,59,61</quad4>
			<quad4 id="19">38,36,61,63</quad4>
			<quad4 id="20">40,38,63,65</quad4>
<!-- ... 620 like lines cut -->
		</Surface>
		<Surface name="Inlet">
			<tri3 id="1">1,3,2</tri3>
			<quad4 id="2">3,5,4,2</quad4>
			<quad4 id="3">5,7,6,4</quad4>
			<quad4 id="4">7,9,8,6</quad4>
			<quad4 id="5">9,11,10,8</quad4>
			<quad4 id="6">11,13,12,10</quad4>
			<quad4 id="7">13,15,14,12</quad4>
			<quad4 id="8">15,17,16,14</quad4>
			<quad4 id="9">17,19,18,16</quad4>
			<quad4 id="10">19,21,20,18</quad4>
			<quad4 id="11">21,23,22,20</quad4>
			<quad4 id="12">23,1027,1022,22</quad4>
		</Surface>
		<Surface name="Outlet">
			<tri3 id="1">999,1000,1001</tri3>
			<quad4 id="2">1000,1002,1003,1001</quad4>
			<quad4 id="3">1002,1004,1005,1003</quad4>
			<quad4 id="4">1004,1006,1007,1005</quad4>
			<quad4 id="5">1006,1008,1009,1007</quad4>
			<quad4 id="6">1008,1010,1011,1009</quad4>
			<quad4 id="7">1010,1012,1013,1011</quad4>
			<quad4 id="8">1012,1014,1015,1013</quad4>
			<quad4 id="9">1014,1016,1017,1015</quad4>
			<quad4 id="10">1016,1018,1019,1017</quad4>
			<quad4 id="11">1018,1020,1021,1019</quad4>
			<quad4 id="12">1020,1344,1349,1021</quad4>
		</Surface>
	</Mesh>
	<MeshDomains>
		<SolidDomain name="Part1" mat="Fluid"/>
		<SolidDomain name="Part1__2" mat="Fluid"/>
		<SolidDomain name="Part3" mat="Solid"/>
	</MeshDomains>
	<MeshData>
		<SurfaceData name="inlet" data_type="scalar" surface="FluidNormalVelocity1">
			<face lid="1">1.94079077041183</face>
			<face lid="2">1.7481300261753</face>
			<face lid="3">1.45033784060036</face>
			<face lid="4">1.15168401484619</face>
			<face lid="5">0.88533924227123</face>
			<face lid="6">0.661762245294168</face>
			<face lid="7">0.480667042801637</face>
			<face lid="8">0.337312283826654</face>
			<face lid="9">0.225555775392833</face>
			<face lid="10">0.139347003565223</face>
			<face lid="11">0.0733579051998778</face>
			<face lid="12">0.0231051514705969</face>
		</SurfaceData>
	</MeshData>
	<Boundary>
		<bc name="FixedDisplacement01" type="fix" node_set="FixedDisplacement1">
			<dofs>x,y</dofs>
		</bc>
		<bc name="FixedDisplacement02" type="fix" node_set="FixedDisplacement2">
			<dofs>y</dofs>
		</bc>
		<bc name="FixedDisplacement03" type="fix" node_set="FixedDisplacement3">
			<dofs>z</dofs>
		</bc>
		<bc name="FixedFluidVelocity01" type="fix" node_set="FixedFluidVelocity1">
			<dofs>wx,wy,wz</dofs>
		</bc>
		<bc name="PrescribedFluidDilatation1" type="prescribe" node_set="PrescribedFluidDilatation1">
			<dof>ef</dof>
			<scale lc="1">0</scale>
			<relative>0</relative>
		</bc>
	</Boundary>
	<Loads>
		<surface_load name="FluidNormalVelocity01" type="fluid normal velocity" surface="FluidNormalVelocity1">
			<velocity lc="2">-1</velocity>
			<prescribe_nodal_velocities>1</prescribe_nodal_velocities>
			<parabolic>0</parabolic>
			<value surface_data="inlet"/>
		</surface_load>
		<surface_load name="FluidFlowResistance01" type="fluid resistance" surface="FluidFlowResistance1">
			<R lc="3">0</R>
			<pressure_offset lc="4">0</pressure_offset>
		</surface_load>
		<surface_load name="FluidBackflowStabilization01" type="fluid backflow stabilization" surface="FluidBackflowStabilization1">
			<beta lc="5">1</beta>
		</surface_load>
		<surface_load name="FluidTangentialStabilization01" type="fluid tangential stabilization" surface="FluidTangentialStabilization1">
			<beta lc="6">1</beta>
		</surface_load>
		<surface_load name="FSInterfaceTraction01" type="fluid-FSI traction" surface="FSIInterfaceTraction1">
		</surface_load>
	</Loads>
	<Constraints>
		<constraint type="symmetry plane" name="SymmetryPlane1" surface="SymmetryPlane1">
			<laugon>0</laugon>
			<tol>0.2</tol>
			<penalty>1000</penalty>
			<minaug>0</minaug>
			<maxaug>0</maxaug>
		</constraint>
	</Constraints>
	<LoadData>
		<load_controller id="1" type="loadcurve">
			<interpolate>LINEAR</interpolate>
			<points>
				<point>0,0</point>
				<point>0.1,1</point>
			</points>
		</load_controller>
		<load_controller id="2" type="loadcurve">
			<interpolate>LINEAR</interpolate>
			<points>
				<point>0,0</point>
				<point>0.075,0.1</point>
				<point>0.15,0.1</point>
				<point>0.25,0.5</point>
				<point>0.275,0.5</point>
				<point>0.35,0.1</point>
			</points>
		</load_controller>
		<load_controller id="3" type="loadcurve">
			<interpolate>STEP</interpolate>
			<points>
				<point>0,0</point>
				<point>1,1</point>
			</points>
		</load_controller>
		<load_controller id="4" type="loadcurve">
			<interpolate>LINEAR</interpolate>
			<points>
				<point>0,0</point>
				<point>0.1,1</point>
			</points>
		</load_controller>
		<load_controller id="5" type="loadcurve">
			<interpolate>STEP</interpolate>
			<points>
				<point>0,0</point>
				<point>1,1</point>
			</points>
		</load_controller>
		<load_controller id="6" type="loadcurve">
			<interpolate>STEP</interpolate>
			<points>
				<point>0,0</point>
				<point>1,1</point>
			</points>
		</load_controller>
	</LoadData>
	<Output>
		<plotfile type="febio">
			<var type="acceleration"/>
			<var type="displacement"/>
			<var type="relative volume"/>
			<var type="stress"/>
			<var type="velocity"/>
			<var type="fluid pressure"/>
			<var type="fluid acceleration"/>
			<var type="fluid density"/>
			<var type="fluid dilatation"/>
			<var type="fluid mass flow rate" surface="Inlet"/>
			<var type="fluid mass flow rate" surface="Outlet"/>
			<var type="fluid rate of deformation"/>
			<var type="fluid stress"/>
			<var type="fluid velocity"/>
			<var type="fluid volume ratio"/>
			<var type="fluid vorticity"/>
			<var type="nodal fluid velocity"/>
			<var type="nodal fluid flux"/>
			<var type="relative fluid velocity"/>
		</plotfile>
	</Output>
</febio_spec>
