<?xml version="1.0" encoding="ISO-8859-1"?>
<!--
Problem Description:
	2D tube problem where solid arc compresses and then
	slides. The Arc is rigid, otherwise Newtonian fluid,
	neoHookean solid. Arc uses tet10
Main Features:
        Sliding contact
        FSI traction
	prescribed/fixed ef
	Tet10
	rigid body
Secondary Features:
	Broyden
	No diverge ref
	No ref each step
	backflow stab
	tangential stab
Materials:
        Newtonian Fluid
Degrees of Freedom: 11210
Results:
	Steps Completed: 102
	Equilibrium Iterations: 1651
	Right Hand Evaluations: 3212
	Stiffness Reformations: 64
	Other:
		The total nodal fluid velocity is 0.039544 at time 1
		for node 1954
Comments:
   
-->
<febio_spec version="3.0">
	<Module type="fluid-FSI"/>
	<Control>
		<analysis>DYNAMIC</analysis>
		<time_steps>100</time_steps>
		<step_size>0.01</step_size>
		<solver>
			<max_refs>10</max_refs>
			<max_ups>25</max_ups>
			<diverge_reform>0</diverge_reform>
			<reform_each_time_step>0</reform_each_time_step>
			<dtol>0.001</dtol>
			<vtol>0.001</vtol>
			<ftol>0.001</ftol>
			<etol>0.01</etol>
			<rtol>0.001</rtol>
			<lstol>0.9</lstol>
			<min_residual>1e-20</min_residual>
			<max_residual>1e+20</max_residual>
			<rhoi>0</rhoi>
			<qnmethod>BROYDEN</qnmethod>
			<symmetric_stiffness>0</symmetric_stiffness>
		</solver>
		<time_stepper>
			<dtmin>0.001</dtmin>
			<dtmax>0.01</dtmax>
			<max_retries>5</max_retries>
			<opt_iter>80</opt_iter>
		</time_stepper>
	</Control>
	<Globals>
		<Constants>
			<T>0</T>
			<R>0</R>
			<Fc>0</Fc>
		</Constants>
	</Globals>
	<Material>
		<material id="1" name="Material1" type="fluid-FSI">
			<fluid type="fluid">
				<density>1</density>
				<k>1e+09</k>
				<viscous type="Newtonian fluid">
					<mu>0.1</mu>
					<kappa>0</kappa>
				</viscous>
			</fluid>
			<solid type="neo-Hookean">
				<density>0</density>
				<E>1e-09</E>
				<v>0</v>
			</solid>
		</material>
		<material id="2" name="Material2" type="neo-Hookean">
			<density>1</density>
			<E>50000</E>
			<v>0.3</v>
		</material>
		<material id="3" name="Material3" type="rigid body">
			<density>1</density>
		</material>
	</Material>
	<Mesh>
		<Nodes name="Object01">
			<node id="1">-0.4,-0.05,0</node>
			<node id="2">-0.4,-0.05,0.05</node>
			<node id="3">-0.4,-0.049283808,0</node>
			<node id="4">-0.4,-0.049283808,0.05</node>
			<node id="5">-0.4,-0.048281139,0</node>
			<node id="6">-0.4,-0.048281139,0.05</node>
			<node id="7">-0.4,-0.046877402,0</node>
			<node id="8">-0.4,-0.046877402,0.05</node>
			<node id="9">-0.4,-0.044912171,0</node>
			<node id="10">-0.4,-0.044912171,0.05</node>
			<node id="11">-0.4,-0.042160847,0</node>
			<node id="12">-0.4,-0.042160847,0.05</node>
			<node id="13">-0.4,-0.038308993,0</node>
			<node id="14">-0.4,-0.038308993,0.05</node>
			<node id="15">-0.4,-0.032916399,0</node>
			<node id="16">-0.4,-0.032916399,0.05</node>
			<node id="17">-0.4,-0.025366766,0</node>
			<node id="18">-0.4,-0.025366766,0.05</node>
			<node id="19">-0.4,-0.01479728,0</node>
			<node id="20">-0.4,-0.01479728,0.05</node>
<!-- ... 2757 like lines cut -->
		</Nodes>
		<Elements type="hex8" name="Part1">
			<elem id="1">1,43,45,3,2,44,46,4</elem>
			<elem id="2">3,45,47,5,4,46,48,6</elem>
			<elem id="3">5,47,49,7,6,48,50,8</elem>
			<elem id="4">7,49,51,9,8,50,52,10</elem>
			<elem id="5">9,51,53,11,10,52,54,12</elem>
			<elem id="6">11,53,55,13,12,54,56,14</elem>
			<elem id="7">13,55,57,15,14,56,58,16</elem>
			<elem id="8">15,57,59,17,16,58,60,18</elem>
			<elem id="9">17,59,61,19,18,60,62,20</elem>
			<elem id="10">19,61,63,21,20,62,64,22</elem>
			<elem id="11">21,63,65,23,22,64,66,24</elem>
			<elem id="12">23,65,67,25,24,66,68,26</elem>
			<elem id="13">25,67,69,27,26,68,70,28</elem>
			<elem id="14">27,69,71,29,28,70,72,30</elem>
			<elem id="15">29,71,73,31,30,72,74,32</elem>
			<elem id="16">31,73,75,33,32,74,76,34</elem>
			<elem id="17">33,75,77,35,34,76,78,36</elem>
			<elem id="18">35,77,79,37,36,78,80,38</elem>
			<elem id="19">37,79,81,39,38,80,82,40</elem>
			<elem id="20">39,81,83,41,40,82,84,42</elem>
<!-- ... 900 like lines cut -->
		</Elements>
		<Elements type="hex8" name="Part3">
			<elem id="921">1,43,44,2,1975,1979,1980,1976</elem>
			<elem id="922">43,85,86,44,1979,1983,1984,1980</elem>
			<elem id="923">85,127,128,86,1983,1987,1988,1984</elem>
			<elem id="924">127,169,170,128,1987,1991,1992,1988</elem>
			<elem id="925">169,211,212,170,1991,1995,1996,1992</elem>
			<elem id="926">211,253,254,212,1995,1999,2000,1996</elem>
			<elem id="927">253,295,296,254,1999,2003,2004,2000</elem>
			<elem id="928">295,337,338,296,2003,2007,2008,2004</elem>
			<elem id="929">337,379,380,338,2007,2011,2012,2008</elem>
			<elem id="930">379,421,422,380,2011,2015,2016,2012</elem>
			<elem id="931">421,463,464,422,2015,2019,2020,2016</elem>
			<elem id="932">463,505,506,464,2019,2023,2024,2020</elem>
			<elem id="933">505,547,548,506,2023,2027,2028,2024</elem>
			<elem id="934">547,589,590,548,2027,2031,2032,2028</elem>
			<elem id="935">589,631,632,590,2031,2035,2036,2032</elem>
			<elem id="936">631,673,674,632,2035,2039,2040,2036</elem>
			<elem id="937">673,715,716,674,2039,2043,2044,2040</elem>
			<elem id="938">715,757,758,716,2043,2047,2048,2044</elem>
			<elem id="939">757,799,800,758,2047,2051,2052,2048</elem>
			<elem id="940">799,841,842,800,2051,2055,2056,2052</elem>
<!-- ... 72 like lines cut -->
		</Elements>
		<Elements type="tet10" name="Part4">
			<elem id="1013">2163,2164,2166,2226,2289,2292,2290,2291,2293,2304</elem>
			<elem id="1014">2164,2167,2166,2226,2294,2305,2292,2293,2308,2304</elem>
			<elem id="1015">2164,2167,2226,2230,2294,2308,2293,2295,2309,2636</elem>
			<elem id="1016">2164,2226,2227,2230,2293,2637,2296,2295,2636,2639</elem>
			<elem id="1017">2167,2166,2226,2229,2305,2304,2308,2310,2306,2638</elem>
			<elem id="1018">2167,2226,2230,2229,2308,2636,2309,2310,2638,2643</elem>
			<elem id="1019">2164,2165,2167,2230,2297,2298,2294,2295,2299,2309</elem>
			<elem id="1020">2164,2165,2230,2227,2297,2299,2295,2296,2300,2639</elem>
			<elem id="1021">2165,2168,2167,2230,2301,2311,2298,2299,2315,2309</elem>
			<elem id="1022">2165,2168,2230,2231,2301,2315,2299,2302,2316,2646</elem>
			<elem id="1023">2165,2227,2228,2231,2300,2640,2303,2302,2641,2642</elem>
			<elem id="1024">2165,2227,2231,2230,2300,2641,2302,2299,2639,2646</elem>
			<elem id="1025">2166,2167,2169,2229,2305,2312,2307,2306,2310,2321</elem>
			<elem id="1026">2167,2170,2169,2229,2313,2322,2312,2310,2325,2321</elem>
			<elem id="1027">2167,2170,2229,2233,2313,2325,2310,2314,2326,2644</elem>
			<elem id="1028">2167,2229,2230,2233,2310,2643,2309,2314,2644,2647</elem>
			<elem id="1029">2170,2169,2229,2232,2322,2321,2325,2327,2323,2645</elem>
			<elem id="1030">2170,2229,2233,2232,2325,2644,2326,2327,2645,2650</elem>
			<elem id="1031">2167,2168,2170,2233,2311,2317,2313,2314,2318,2326</elem>
			<elem id="1032">2167,2168,2233,2230,2311,2318,2314,2309,2315,2647</elem>
<!-- ... 220 like lines cut -->
		</Elements>
		<NodeSet name="FixedDisplacement1">
			<n id="1"/>
			<n id="2"/>
			<n id="3"/>
			<n id="4"/>
			<n id="5"/>
			<n id="6"/>
			<n id="7"/>
			<n id="8"/>
			<n id="9"/>
			<n id="10"/>
			<n id="11"/>
			<n id="12"/>
			<n id="13"/>
			<n id="14"/>
			<n id="15"/>
			<n id="16"/>
			<n id="17"/>
			<n id="18"/>
			<n id="19"/>
			<n id="20"/>
<!-- ... 12952 like lines cut -->
		</NodeSet>
		<NodeSet name="FixedDisplacement2">
			<n id="1975"/>
			<n id="1976"/>
			<n id="1979"/>
			<n id="1980"/>
			<n id="1983"/>
			<n id="1984"/>
			<n id="1987"/>
			<n id="1988"/>
			<n id="1991"/>
			<n id="1992"/>
			<n id="1995"/>
			<n id="1996"/>
			<n id="1999"/>
			<n id="2000"/>
			<n id="2003"/>
			<n id="2004"/>
			<n id="2007"/>
			<n id="2008"/>
			<n id="2011"/>
			<n id="2012"/>
<!-- ... 74 like lines cut -->
		</NodeSet>
		<NodeSet name="FixedDisplacement3">
			<n id="1"/>
			<n id="2"/>
			<n id="3"/>
			<n id="4"/>
			<n id="5"/>
			<n id="6"/>
			<n id="7"/>
			<n id="8"/>
			<n id="9"/>
			<n id="10"/>
			<n id="11"/>
			<n id="12"/>
			<n id="13"/>
			<n id="14"/>
			<n id="15"/>
			<n id="16"/>
			<n id="17"/>
			<n id="18"/>
			<n id="19"/>
			<n id="20"/>
<!-- ... 532 like lines cut -->
		</NodeSet>
		<NodeSet name="FixedFluidVelocity1">
			<n id="1"/>
			<n id="2"/>
			<n id="41"/>
			<n id="42"/>
			<n id="43"/>
			<n id="44"/>
			<n id="83"/>
			<n id="84"/>
			<n id="85"/>
			<n id="86"/>
			<n id="125"/>
			<n id="126"/>
			<n id="127"/>
			<n id="128"/>
			<n id="167"/>
			<n id="168"/>
			<n id="169"/>
			<n id="170"/>
			<n id="209"/>
			<n id="210"/>
<!-- ... 356 like lines cut -->
		</NodeSet>
		<NodeSet name="FixedFluidDilatation1">
			<n id="1"/>
			<n id="2"/>
			<n id="3"/>
			<n id="4"/>
			<n id="5"/>
			<n id="6"/>
			<n id="7"/>
			<n id="8"/>
			<n id="9"/>
			<n id="10"/>
			<n id="11"/>
			<n id="12"/>
			<n id="13"/>
			<n id="14"/>
			<n id="15"/>
			<n id="16"/>
			<n id="17"/>
			<n id="18"/>
			<n id="19"/>
			<n id="20"/>
<!-- ... 148 like lines cut -->
		</NodeSet>
		<Surface name="FluidBackflowStabilization1">
			<quad4 id="1">3,1,2,4</quad4>
			<quad4 id="2">5,3,4,6</quad4>
			<quad4 id="3">7,5,6,8</quad4>
			<quad4 id="4">9,7,8,10</quad4>
			<quad4 id="5">11,9,10,12</quad4>
			<quad4 id="6">13,11,12,14</quad4>
			<quad4 id="7">15,13,14,16</quad4>
			<quad4 id="8">17,15,16,18</quad4>
			<quad4 id="9">19,17,18,20</quad4>
			<quad4 id="10">21,19,20,22</quad4>
			<quad4 id="11">23,21,22,24</quad4>
			<quad4 id="12">25,23,24,26</quad4>
			<quad4 id="13">27,25,26,28</quad4>
			<quad4 id="14">29,27,28,30</quad4>
			<quad4 id="15">31,29,30,32</quad4>
			<quad4 id="16">33,31,32,34</quad4>
			<quad4 id="17">35,33,34,36</quad4>
			<quad4 id="18">37,35,36,38</quad4>
			<quad4 id="19">39,37,38,40</quad4>
			<quad4 id="20">41,39,40,42</quad4>
		</Surface>
		<Surface name="FluidBackflowStabilization2">
			<quad4 id="1">1933,1935,1936,1934</quad4>
			<quad4 id="2">1935,1937,1938,1936</quad4>
			<quad4 id="3">1937,1939,1940,1938</quad4>
			<quad4 id="4">1939,1941,1942,1940</quad4>
			<quad4 id="5">1941,1943,1944,1942</quad4>
			<quad4 id="6">1943,1945,1946,1944</quad4>
			<quad4 id="7">1945,1947,1948,1946</quad4>
			<quad4 id="8">1947,1949,1950,1948</quad4>
			<quad4 id="9">1949,1951,1952,1950</quad4>
			<quad4 id="10">1951,1953,1954,1952</quad4>
			<quad4 id="11">1953,1955,1956,1954</quad4>
			<quad4 id="12">1955,1957,1958,1956</quad4>
			<quad4 id="13">1957,1959,1960,1958</quad4>
			<quad4 id="14">1959,1961,1962,1960</quad4>
			<quad4 id="15">1961,1963,1964,1962</quad4>
			<quad4 id="16">1963,1965,1966,1964</quad4>
			<quad4 id="17">1965,1967,1968,1966</quad4>
			<quad4 id="18">1967,1969,1970,1968</quad4>
			<quad4 id="19">1969,1971,1972,1970</quad4>
			<quad4 id="20">1971,1973,1974,1972</quad4>
		</Surface>
		<Surface name="FluidTangentialStabilization1">
			<quad4 id="1">3,1,2,4</quad4>
			<quad4 id="2">5,3,4,6</quad4>
			<quad4 id="3">7,5,6,8</quad4>
			<quad4 id="4">9,7,8,10</quad4>
			<quad4 id="5">11,9,10,12</quad4>
			<quad4 id="6">13,11,12,14</quad4>
			<quad4 id="7">15,13,14,16</quad4>
			<quad4 id="8">17,15,16,18</quad4>
			<quad4 id="9">19,17,18,20</quad4>
			<quad4 id="10">21,19,20,22</quad4>
			<quad4 id="11">23,21,22,24</quad4>
			<quad4 id="12">25,23,24,26</quad4>
			<quad4 id="13">27,25,26,28</quad4>
			<quad4 id="14">29,27,28,30</quad4>
			<quad4 id="15">31,29,30,32</quad4>
			<quad4 id="16">33,31,32,34</quad4>
			<quad4 id="17">35,33,34,36</quad4>
			<quad4 id="18">37,35,36,38</quad4>
			<quad4 id="19">39,37,38,40</quad4>
			<quad4 id="20">41,39,40,42</quad4>
		</Surface>
		<Surface name="FluidTangentialStabilization2">
			<quad4 id="1">1933,1935,1936,1934</quad4>
			<quad4 id="2">1935,1937,1938,1936</quad4>
			<quad4 id="3">1937,1939,1940,1938</quad4>
			<quad4 id="4">1939,1941,1942,1940</quad4>
			<quad4 id="5">1941,1943,1944,1942</quad4>
			<quad4 id="6">1943,1945,1946,1944</quad4>
			<quad4 id="7">1945,1947,1948,1946</quad4>
			<quad4 id="8">1947,1949,1950,1948</quad4>
			<quad4 id="9">1949,1951,1952,1950</quad4>
			<quad4 id="10">1951,1953,1954,1952</quad4>
			<quad4 id="11">1953,1955,1956,1954</quad4>
			<quad4 id="12">1955,1957,1958,1956</quad4>
			<quad4 id="13">1957,1959,1960,1958</quad4>
			<quad4 id="14">1959,1961,1962,1960</quad4>
			<quad4 id="15">1961,1963,1964,1962</quad4>
			<quad4 id="16">1963,1965,1966,1964</quad4>
			<quad4 id="17">1965,1967,1968,1966</quad4>
			<quad4 id="18">1967,1969,1970,1968</quad4>
			<quad4 id="19">1969,1971,1972,1970</quad4>
			<quad4 id="20">1971,1973,1974,1972</quad4>
		</Surface>
		<Surface name="FSIInterfaceTraction1">
			<quad4 id="1">1,43,44,2</quad4>
			<quad4 id="2">43,85,86,44</quad4>
			<quad4 id="3">85,127,128,86</quad4>
			<quad4 id="4">127,169,170,128</quad4>
			<quad4 id="5">169,211,212,170</quad4>
			<quad4 id="6">211,253,254,212</quad4>
			<quad4 id="7">253,295,296,254</quad4>
			<quad4 id="8">295,337,338,296</quad4>
			<quad4 id="9">337,379,380,338</quad4>
			<quad4 id="10">379,421,422,380</quad4>
			<quad4 id="11">421,463,464,422</quad4>
			<quad4 id="12">463,505,506,464</quad4>
			<quad4 id="13">505,547,548,506</quad4>
			<quad4 id="14">547,589,590,548</quad4>
			<quad4 id="15">589,631,632,590</quad4>
			<quad4 id="16">631,673,674,632</quad4>
			<quad4 id="17">673,715,716,674</quad4>
			<quad4 id="18">715,757,758,716</quad4>
			<quad4 id="19">757,799,800,758</quad4>
			<quad4 id="20">799,841,842,800</quad4>
<!-- ... 72 like lines cut -->
		</Surface>
		<Surface name="Sliding-elasticContact1_slave">
			<quad4 id="1">2161,2157,2158,2162</quad4>
			<quad4 id="2">2157,2153,2154,2158</quad4>
			<quad4 id="3">2153,2149,2150,2154</quad4>
			<quad4 id="4">2149,2145,2146,2150</quad4>
			<quad4 id="5">2145,2141,2142,2146</quad4>
			<quad4 id="6">2141,2137,2138,2142</quad4>
			<quad4 id="7">2137,2133,2134,2138</quad4>
			<quad4 id="8">2133,2129,2130,2134</quad4>
			<quad4 id="9">2129,2125,2126,2130</quad4>
			<quad4 id="10">2125,2121,2122,2126</quad4>
			<quad4 id="11">2121,2117,2118,2122</quad4>
			<quad4 id="12">2117,2113,2114,2118</quad4>
			<quad4 id="13">2113,2109,2110,2114</quad4>
			<quad4 id="14">2109,2105,2106,2110</quad4>
			<quad4 id="15">2105,2101,2102,2106</quad4>
			<quad4 id="16">2101,2097,2098,2102</quad4>
			<quad4 id="17">2097,2093,2094,2098</quad4>
			<quad4 id="18">2093,2089,2090,2094</quad4>
			<quad4 id="19">2089,2085,2086,2090</quad4>
			<quad4 id="20">2085,2081,2082,2086</quad4>
<!-- ... 26 like lines cut -->
		</Surface>
		<Surface name="Sliding-elasticContact1_master">
			<tri6 id="1">2165,2168,2231,2301,2316,2302</tri6>
			<tri6 id="2">2228,2165,2231,2303,2302,2642</tri6>
			<tri6 id="3">2168,2171,2234,2319,2333,2320</tri6>
			<tri6 id="4">2231,2168,2234,2316,2320,2649</tri6>
			<tri6 id="5">2171,2174,2237,2336,2350,2337</tri6>
			<tri6 id="6">2234,2171,2237,2333,2337,2656</tri6>
			<tri6 id="7">2174,2177,2240,2353,2367,2354</tri6>
			<tri6 id="8">2237,2174,2240,2350,2354,2663</tri6>
			<tri6 id="9">2177,2180,2243,2370,2384,2371</tri6>
			<tri6 id="10">2240,2177,2243,2367,2371,2670</tri6>
			<tri6 id="11">2180,2183,2246,2387,2401,2388</tri6>
			<tri6 id="12">2243,2180,2246,2384,2388,2677</tri6>
			<tri6 id="13">2183,2186,2249,2404,2418,2405</tri6>
			<tri6 id="14">2246,2183,2249,2401,2405,2684</tri6>
			<tri6 id="15">2186,2189,2252,2421,2435,2422</tri6>
			<tri6 id="16">2249,2186,2252,2418,2422,2691</tri6>
			<tri6 id="17">2189,2192,2255,2438,2452,2439</tri6>
			<tri6 id="18">2252,2189,2255,2435,2439,2698</tri6>
			<tri6 id="19">2192,2195,2258,2455,2469,2456</tri6>
			<tri6 id="20">2255,2192,2258,2452,2456,2705</tri6>
<!-- ... 20 like lines cut -->
		</Surface>
		<SurfacePair name="Sliding-elasticContact1">
			<primary>Sliding-elasticContact1_slave</primary>
			<secondary>Sliding-elasticContact1_master</secondary>
		</SurfacePair>
	</Mesh>
	<MeshDomains>
		<SolidDomain name="Part1" mat="Material1"/>
		<SolidDomain name="Part3" mat="Material2"/>
		<SolidDomain name="Part4" mat="Material3"/>
	</MeshDomains>
	<Boundary>
		<bc name="FixedDisplacement01" type="fix" node_set="FixedDisplacement1">
			<dofs>z</dofs>
		</bc>
		<bc name="FixedDisplacement02" type="fix" node_set="FixedDisplacement2">
			<dofs>x,y</dofs>
		</bc>
		<bc name="FixedDisplacement03" type="fix" node_set="FixedDisplacement3">
			<dofs>x,y</dofs>
		</bc>
		<bc name="FixedFluidVelocity01" type="fix" node_set="FixedFluidVelocity1">
			<dofs>wx,wy,wz</dofs>
		</bc>
		<bc name="FixedFluidDilatation01" type="fix" node_set="FixedFluidDilatation1">
			<dofs>ef</dofs>
		</bc>
	</Boundary>
	<Rigid>
		<rigid_constraint name="RigidFixed61" type="fix">
			<rb>3</rb>
			<dofs>Rz,Ru,Rv,Rw</dofs>
		</rigid_constraint>
		<rigid_constraint name="RigidDisplacement29" type="prescribe">
			<rb>3</rb>
			<dof>Rx</dof>
			<value lc="5">1</value>
		</rigid_constraint>
		<rigid_constraint name="RigidDisplacement30" type="prescribe">
			<rb>3</rb>
			<dof>Ry</dof>
			<value lc="6">-1</value>
		</rigid_constraint>
	</Rigid>
	<Loads>
		<surface_load name="FluidBackflowStabilization01" type="fluid backflow stabilization" surface="FluidBackflowStabilization1">
			<beta lc="1">1</beta>
		</surface_load>
		<surface_load name="FluidBackflowStabilization02" type="fluid backflow stabilization" surface="FluidBackflowStabilization2">
			<beta lc="2">1</beta>
		</surface_load>
		<surface_load name="FluidTangentialStabilization01" type="fluid tangential stabilization" surface="FluidTangentialStabilization1">
			<beta lc="3">1</beta>
		</surface_load>
		<surface_load name="FluidTangentialStabilization02" type="fluid tangential stabilization" surface="FluidTangentialStabilization2">
			<beta lc="4">1</beta>
		</surface_load>
		<surface_load name="FSInterfaceTraction01" type="fluid-FSI traction" surface="FSIInterfaceTraction1">
		</surface_load>
	</Loads>
	<Contact>
		<contact type="sliding-elastic" name="Sliding-elasticContact1" surface_pair="Sliding-elasticContact1">
			<laugon>0</laugon>
			<tolerance>0.2</tolerance>
			<gaptol>0</gaptol>
			<penalty>1</penalty>
			<auto_penalty>1</auto_penalty>
			<two_pass>0</two_pass>
			<search_tol>0.01</search_tol>
			<symmetric_stiffness>0</symmetric_stiffness>
			<search_radius>1</search_radius>
			<seg_up>0</seg_up>
			<tension>0</tension>
			<minaug>0</minaug>
			<maxaug>10</maxaug>
			<fric_coeff>0</fric_coeff>
			<smooth_aug>0</smooth_aug>
			<node_reloc>0</node_reloc>
			<flip_primary>0</flip_primary>
			<flip_secondary>0</flip_secondary>
			<knmult>0</knmult>
			<update_penalty>0</update_penalty>
		</contact>
	</Contact>
	<LoadData>
		<load_controller id="1" type="loadcurve">
			<interpolate>STEP</interpolate>
			<points>
				<point>0,0</point>
				<point>1,1</point>
			</points>
		</load_controller>
		<load_controller id="2" type="loadcurve">
			<interpolate>STEP</interpolate>
			<points>
				<point>0,0</point>
				<point>1,1</point>
			</points>
		</load_controller>
		<load_controller id="3" type="loadcurve">
			<interpolate>STEP</interpolate>
			<points>
				<point>0,0</point>
				<point>1,1</point>
			</points>
		</load_controller>
		<load_controller id="4" type="loadcurve">
			<interpolate>STEP</interpolate>
			<points>
				<point>0,0</point>
				<point>1,1</point>
			</points>
		</load_controller>
		<load_controller id="5" type="loadcurve">
			<interpolate>LINEAR</interpolate>
			<points>
				<point>0,0</point>
				<point>0.25,0</point>
				<point>0.5,0.25</point>
			</points>
		</load_controller>
		<load_controller id="6" type="loadcurve">
			<interpolate>SMOOTH</interpolate>
			<points>
				<point>0,0</point>
				<point>0.25,0.025</point>
			</points>
		</load_controller>
	</LoadData>
	<Output>
		<plotfile type="febio">
			<var type="acceleration"/>
			<var type="contact area"/>
			<var type="contact force"/>
			<var type="contact gap"/>
			<var type="contact penalty"/>
			<var type="contact pressure"/>
			<var type="contact stick"/>
			<var type="contact traction"/>
			<var type="displacement"/>
			<var type="Lagrange strain"/>
			<var type="stress"/>
			<var type="velocity"/>
			<var type="fluid pressure"/>
			<var type="fluid acceleration"/>
			<var type="fluid density"/>
			<var type="fluid dilatation"/>
			<var type="fluid rate of deformation"/>
			<var type="fluid shear viscosity"/>
			<var type="fluid stress"/>
			<var type="fluid velocity"/>
			<var type="fluid volume ratio"/>
			<var type="fluid vorticity"/>
			<var type="nodal fluid velocity"/>
			<var type="nodal fluid flux"/>
			<var type="relative fluid velocity"/>
		</plotfile>
	</Output>
</febio_spec>
