<?xml version="1.0" encoding="ISO-8859-1"?>
<febio_spec version="3.0">
	<Module type="heat"/>
	<Control>
		<time_steps>10</time_steps>
		<step_size>0.1</step_size>
		<time_stepper>
			<dtmin>0.01</dtmin>
			<dtmax>0.1</dtmax>
			<max_retries>5</max_retries>
			<opt_iter>10</opt_iter>
		</time_stepper>
		<analysis type="static"/>
	</Control>
	<Globals>
		<Constants>
			<T>0</T>
			<R>0</R>
			<Fc>0</Fc>
		</Constants>
	</Globals>
	<Material>
		<material id="1" name="top" type="isotropic Fourier">
			<density>1</density>
			<k>1</k>
			<c>1</c>
		</material>
		<material id="2" name="bottom" type="isotropic Fourier">
			<density>1</density>
			<k>1</k>
			<c>1</c>
		</material>
	</Material>
	<Mesh>
		<Nodes name="Object01">
			<node id="1">-0.5,-0.5,0</node>
			<node id="2">-0.5,-0.5,0.2</node>
			<node id="3">-0.5,-0.5,0.4</node>
			<node id="4">-0.5,-0.5,0.6</node>
			<node id="5">-0.5,-0.5,0.8</node>
			<node id="6">-0.5,-0.5,1</node>
			<node id="7">-0.5,-0.3,0</node>
			<node id="8">-0.5,-0.3,0.2</node>
			<node id="9">-0.5,-0.3,0.4</node>
			<node id="10">-0.5,-0.3,0.6</node>
			<node id="11">-0.5,-0.3,0.8</node>
			<node id="12">-0.5,-0.3,1</node>
			<node id="13">-0.5,-0.1,0</node>
			<node id="14">-0.5,-0.1,0.2</node>
			<node id="15">-0.5,-0.1,0.4</node>
			<node id="16">-0.5,-0.1,0.6</node>
			<node id="17">-0.5,-0.1,0.8</node>
			<node id="18">-0.5,-0.1,1</node>
			<node id="19">-0.5,0.1,0</node>
			<node id="20">-0.5,0.1,0.2</node>
<!-- ... 412 like lines cut -->
		</Nodes>
		<Elements type="hex8" name="Part1">
			<elem id="1">1,37,43,7,2,38,44,8</elem>
			<elem id="2">2,38,44,8,3,39,45,9</elem>
			<elem id="3">3,39,45,9,4,40,46,10</elem>
			<elem id="4">4,40,46,10,5,41,47,11</elem>
			<elem id="5">5,41,47,11,6,42,48,12</elem>
			<elem id="6">7,43,49,13,8,44,50,14</elem>
			<elem id="7">8,44,50,14,9,45,51,15</elem>
			<elem id="8">9,45,51,15,10,46,52,16</elem>
			<elem id="9">10,46,52,16,11,47,53,17</elem>
			<elem id="10">11,47,53,17,12,48,54,18</elem>
			<elem id="11">13,49,55,19,14,50,56,20</elem>
			<elem id="12">14,50,56,20,15,51,57,21</elem>
			<elem id="13">15,51,57,21,16,52,58,22</elem>
			<elem id="14">16,52,58,22,17,53,59,23</elem>
			<elem id="15">17,53,59,23,18,54,60,24</elem>
			<elem id="16">19,55,61,25,20,56,62,26</elem>
			<elem id="17">20,56,62,26,21,57,63,27</elem>
			<elem id="18">21,57,63,27,22,58,64,28</elem>
			<elem id="19">22,58,64,28,23,59,65,29</elem>
			<elem id="20">23,59,65,29,24,60,66,30</elem>
<!-- ... 105 like lines cut -->
		</Elements>
		<Elements type="hex8" name="Part2">
			<elem id="126">217,253,259,223,218,254,260,224</elem>
			<elem id="127">218,254,260,224,219,255,261,225</elem>
			<elem id="128">219,255,261,225,220,256,262,226</elem>
			<elem id="129">220,256,262,226,221,257,263,227</elem>
			<elem id="130">221,257,263,227,222,258,264,228</elem>
			<elem id="131">223,259,265,229,224,260,266,230</elem>
			<elem id="132">224,260,266,230,225,261,267,231</elem>
			<elem id="133">225,261,267,231,226,262,268,232</elem>
			<elem id="134">226,262,268,232,227,263,269,233</elem>
			<elem id="135">227,263,269,233,228,264,270,234</elem>
			<elem id="136">229,265,271,235,230,266,272,236</elem>
			<elem id="137">230,266,272,236,231,267,273,237</elem>
			<elem id="138">231,267,273,237,232,268,274,238</elem>
			<elem id="139">232,268,274,238,233,269,275,239</elem>
			<elem id="140">233,269,275,239,234,270,276,240</elem>
			<elem id="141">235,271,277,241,236,272,278,242</elem>
			<elem id="142">236,272,278,242,237,273,279,243</elem>
			<elem id="143">237,273,279,243,238,274,280,244</elem>
			<elem id="144">238,274,280,244,239,275,281,245</elem>
			<elem id="145">239,275,281,245,240,276,282,246</elem>
<!-- ... 105 like lines cut -->
		</Elements>
		<NodeSet name="FixedTemperature1">
			<n id="1"/>
			<n id="7"/>
			<n id="13"/>
			<n id="19"/>
			<n id="25"/>
			<n id="31"/>
			<n id="37"/>
			<n id="43"/>
			<n id="49"/>
			<n id="55"/>
			<n id="61"/>
			<n id="67"/>
			<n id="73"/>
			<n id="79"/>
			<n id="85"/>
			<n id="91"/>
			<n id="97"/>
			<n id="103"/>
			<n id="109"/>
			<n id="115"/>
<!-- ... 16 like lines cut -->
		</NodeSet>
		<NodeSet name="PrescribedTemperature1">
			<n id="222"/>
			<n id="228"/>
			<n id="234"/>
			<n id="240"/>
			<n id="246"/>
			<n id="252"/>
			<n id="258"/>
			<n id="264"/>
			<n id="270"/>
			<n id="276"/>
			<n id="282"/>
			<n id="288"/>
			<n id="294"/>
			<n id="300"/>
			<n id="306"/>
			<n id="312"/>
			<n id="318"/>
			<n id="324"/>
			<n id="330"/>
			<n id="336"/>
<!-- ... 16 like lines cut -->
		</NodeSet>
		<Surface name="GapHeatFlux1_slave">
			<quad4 id="1">6,42,48,12</quad4>
			<quad4 id="2">12,48,54,18</quad4>
			<quad4 id="3">18,54,60,24</quad4>
			<quad4 id="4">24,60,66,30</quad4>
			<quad4 id="5">30,66,72,36</quad4>
			<quad4 id="6">42,78,84,48</quad4>
			<quad4 id="7">48,84,90,54</quad4>
			<quad4 id="8">54,90,96,60</quad4>
			<quad4 id="9">60,96,102,66</quad4>
			<quad4 id="10">66,102,108,72</quad4>
			<quad4 id="11">78,114,120,84</quad4>
			<quad4 id="12">84,120,126,90</quad4>
			<quad4 id="13">90,126,132,96</quad4>
			<quad4 id="14">96,132,138,102</quad4>
			<quad4 id="15">102,138,144,108</quad4>
			<quad4 id="16">114,150,156,120</quad4>
			<quad4 id="17">120,156,162,126</quad4>
			<quad4 id="18">126,162,168,132</quad4>
			<quad4 id="19">132,168,174,138</quad4>
			<quad4 id="20">138,174,180,144</quad4>
<!-- ... 5 like lines cut -->
		</Surface>
		<Surface name="GapHeatFlux1_master">
			<quad4 id="1">247,283,277,241</quad4>
			<quad4 id="2">241,277,271,235</quad4>
			<quad4 id="3">235,271,265,229</quad4>
			<quad4 id="4">229,265,259,223</quad4>
			<quad4 id="5">223,259,253,217</quad4>
			<quad4 id="6">283,319,313,277</quad4>
			<quad4 id="7">277,313,307,271</quad4>
			<quad4 id="8">271,307,301,265</quad4>
			<quad4 id="9">265,301,295,259</quad4>
			<quad4 id="10">259,295,289,253</quad4>
			<quad4 id="11">319,355,349,313</quad4>
			<quad4 id="12">313,349,343,307</quad4>
			<quad4 id="13">307,343,337,301</quad4>
			<quad4 id="14">301,337,331,295</quad4>
			<quad4 id="15">295,331,325,289</quad4>
			<quad4 id="16">355,391,385,349</quad4>
			<quad4 id="17">349,385,379,343</quad4>
			<quad4 id="18">343,379,373,337</quad4>
			<quad4 id="19">337,373,367,331</quad4>
			<quad4 id="20">331,367,361,325</quad4>
<!-- ... 5 like lines cut -->
		</Surface>
		<SurfacePair name="GapHeatFlux01">
			<primary>GapHeatFlux1_slave</primary>
			<secondary>GapHeatFlux1_master</secondary>
		</SurfacePair>
	</Mesh>
	<MeshDomains>
		<SolidDomain name="Part1" mat="bottom"/>
		<SolidDomain name="Part2" mat="top"/>
	</MeshDomains>
	<Boundary>
		<bc name="FixedTemperature01" type="fix" node_set="FixedTemperature1">
			<dofs>T</dofs>
		</bc>
		<bc name="PrescribedTemperature1" type="prescribe" node_set="PrescribedTemperature1">
			<dof>T</dof>
			<scale lc="1">1</scale>
			<relative>0</relative>
		</bc>
	</Boundary>
	<Contact>
		<contact type="gap heat flux" name="GapHeatFlux01" surface_pair="GapHeatFlux01">
			<hc>1</hc>
			<search_tol>0.01</search_tol>
		</contact>
	</Contact>
	<LoadData>
		<load_controller id="1" type="loadcurve">
			<interpolate>SMOOTH</interpolate>
			<points>
				<point>0,0</point>
				<point>1,1</point>
			</points>
		</load_controller>
	</LoadData>
	<Output>
		<plotfile type="febio">
			<var type="temperature"/>
			<var type="heat flux"/>
		</plotfile>
	</Output>
</febio_spec>
