<?xml version="1.0" encoding="ISO-8859-1"?>
<febio_spec version="3.0">
	<Module type="heat"/>
	<Control>
		<time_steps>10</time_steps>
		<step_size>0.1</step_size>
		<time_stepper>
			<dtmin>0.01</dtmin>
			<dtmax>0.1</dtmax>
			<max_retries>5</max_retries>
			<opt_iter>10</opt_iter>
		</time_stepper>
		<analysis type="static"/>
	</Control>
	<Globals>
		<Constants>
			<T>0</T>
			<R>0</R>
			<Fc>0</Fc>
		</Constants>
	</Globals>
	<Material>
		<material id="1" name="top" type="isotropic Fourier">
			<density>1</density>
			<k>1</k>
			<c>1</c>
		</material>
		<material id="2" name="bottom" type="isotropic Fourier">
			<density>1</density>
			<k>1</k>
			<c>1</c>
		</material>
	</Material>
	<Mesh>
		<Nodes name="Object01">
			<node id="1">-1,-1,0</node>
			<node id="2">-1,-1,0.17558252</node>
			<node id="3">-1,-1,0.33360678</node>
			<node id="4">-1,-1,0.47582862</node>
			<node id="5">-1,-1,0.60382827</node>
			<node id="6">-1,-1,0.71902796</node>
			<node id="7">-1,-1,0.82270768</node>
			<node id="8">-1,-1,0.91601943</node>
			<node id="9">-1,-1,1</node>
			<node id="10">-1,-0.83333333,0</node>
			<node id="11">-1,-0.83333333,0.17558252</node>
			<node id="12">-1,-0.83333333,0.33360678</node>
			<node id="13">-1,-0.83333333,0.47582862</node>
			<node id="14">-1,-0.83333333,0.60382827</node>
			<node id="15">-1,-0.83333333,0.71902796</node>
			<node id="16">-1,-0.83333333,0.82270768</node>
			<node id="17">-1,-0.83333333,0.91601943</node>
			<node id="18">-1,-0.83333333,1</node>
			<node id="19">-1,-0.66666667,0</node>
			<node id="20">-1,-0.66666667,0.17558252</node>
<!-- ... 2230 like lines cut -->
		</Nodes>
		<Elements type="hex8" name="Part1">
			<elem id="1">1,118,127,10,2,119,128,11</elem>
			<elem id="2">2,119,128,11,3,120,129,12</elem>
			<elem id="3">3,120,129,12,4,121,130,13</elem>
			<elem id="4">4,121,130,13,5,122,131,14</elem>
			<elem id="5">5,122,131,14,6,123,132,15</elem>
			<elem id="6">6,123,132,15,7,124,133,16</elem>
			<elem id="7">7,124,133,16,8,125,134,17</elem>
			<elem id="8">8,125,134,17,9,126,135,18</elem>
			<elem id="9">10,127,136,19,11,128,137,20</elem>
			<elem id="10">11,128,137,20,12,129,138,21</elem>
			<elem id="11">12,129,138,21,13,130,139,22</elem>
			<elem id="12">13,130,139,22,14,131,140,23</elem>
			<elem id="13">14,131,140,23,15,132,141,24</elem>
			<elem id="14">15,132,141,24,16,133,142,25</elem>
			<elem id="15">16,133,142,25,17,134,143,26</elem>
			<elem id="16">17,134,143,26,18,135,144,27</elem>
			<elem id="17">19,136,145,28,20,137,146,29</elem>
			<elem id="18">20,137,146,29,21,138,147,30</elem>
			<elem id="19">21,138,147,30,22,139,148,31</elem>
			<elem id="20">22,139,148,31,23,140,149,32</elem>
<!-- ... 1132 like lines cut -->
		</Elements>
		<Elements type="hex8" name="Part2">
			<elem id="1153">1522,1603,1612,1531,1523,1604,1613,1532</elem>
			<elem id="1154">1523,1604,1613,1532,1524,1605,1614,1533</elem>
			<elem id="1155">1524,1605,1614,1533,1525,1606,1615,1534</elem>
			<elem id="1156">1525,1606,1615,1534,1526,1607,1616,1535</elem>
			<elem id="1157">1526,1607,1616,1535,1527,1608,1617,1536</elem>
			<elem id="1158">1527,1608,1617,1536,1528,1609,1618,1537</elem>
			<elem id="1159">1528,1609,1618,1537,1529,1610,1619,1538</elem>
			<elem id="1160">1529,1610,1619,1538,1530,1611,1620,1539</elem>
			<elem id="1161">1531,1612,1621,1540,1532,1613,1622,1541</elem>
			<elem id="1162">1532,1613,1622,1541,1533,1614,1623,1542</elem>
			<elem id="1163">1533,1614,1623,1542,1534,1615,1624,1543</elem>
			<elem id="1164">1534,1615,1624,1543,1535,1616,1625,1544</elem>
			<elem id="1165">1535,1616,1625,1544,1536,1617,1626,1545</elem>
			<elem id="1166">1536,1617,1626,1545,1537,1618,1627,1546</elem>
			<elem id="1167">1537,1618,1627,1546,1538,1619,1628,1547</elem>
			<elem id="1168">1538,1619,1628,1547,1539,1620,1629,1548</elem>
			<elem id="1169">1540,1621,1630,1549,1541,1622,1631,1550</elem>
			<elem id="1170">1541,1622,1631,1550,1542,1623,1632,1551</elem>
			<elem id="1171">1542,1623,1632,1551,1543,1624,1633,1552</elem>
			<elem id="1172">1543,1624,1633,1552,1544,1625,1634,1553</elem>
<!-- ... 492 like lines cut -->
		</Elements>
		<NodeSet name="FixedTemperature1">
			<n id="1"/>
			<n id="10"/>
			<n id="19"/>
			<n id="28"/>
			<n id="37"/>
			<n id="46"/>
			<n id="55"/>
			<n id="64"/>
			<n id="73"/>
			<n id="82"/>
			<n id="91"/>
			<n id="100"/>
			<n id="109"/>
			<n id="118"/>
			<n id="127"/>
			<n id="136"/>
			<n id="145"/>
			<n id="154"/>
			<n id="163"/>
			<n id="172"/>
<!-- ... 149 like lines cut -->
		</NodeSet>
		<NodeSet name="PrescribedTemperature1">
			<n id="1530"/>
			<n id="1539"/>
			<n id="1548"/>
			<n id="1557"/>
			<n id="1566"/>
			<n id="1575"/>
			<n id="1584"/>
			<n id="1593"/>
			<n id="1602"/>
			<n id="1611"/>
			<n id="1620"/>
			<n id="1629"/>
			<n id="1638"/>
			<n id="1647"/>
			<n id="1656"/>
			<n id="1665"/>
			<n id="1674"/>
			<n id="1683"/>
			<n id="1692"/>
			<n id="1701"/>
<!-- ... 61 like lines cut -->
		</NodeSet>
		<Surface name="GapHeatFlux_slave">
			<quad4 id="1">9,126,135,18</quad4>
			<quad4 id="2">18,135,144,27</quad4>
			<quad4 id="3">27,144,153,36</quad4>
			<quad4 id="4">36,153,162,45</quad4>
			<quad4 id="5">45,162,171,54</quad4>
			<quad4 id="6">54,171,180,63</quad4>
			<quad4 id="7">63,180,189,72</quad4>
			<quad4 id="8">72,189,198,81</quad4>
			<quad4 id="9">81,198,207,90</quad4>
			<quad4 id="10">90,207,216,99</quad4>
			<quad4 id="11">99,216,225,108</quad4>
			<quad4 id="12">108,225,234,117</quad4>
			<quad4 id="13">126,243,252,135</quad4>
			<quad4 id="14">135,252,261,144</quad4>
			<quad4 id="15">144,261,270,153</quad4>
			<quad4 id="16">153,270,279,162</quad4>
			<quad4 id="17">162,279,288,171</quad4>
			<quad4 id="18">171,288,297,180</quad4>
			<quad4 id="19">180,297,306,189</quad4>
			<quad4 id="20">189,306,315,198</quad4>
<!-- ... 124 like lines cut -->
		</Surface>
		<Surface name="GapHeatFlux_master">
			<quad4 id="1">1594,1675,1666,1585</quad4>
			<quad4 id="2">1585,1666,1657,1576</quad4>
			<quad4 id="3">1576,1657,1648,1567</quad4>
			<quad4 id="4">1567,1648,1639,1558</quad4>
			<quad4 id="5">1558,1639,1630,1549</quad4>
			<quad4 id="6">1549,1630,1621,1540</quad4>
			<quad4 id="7">1540,1621,1612,1531</quad4>
			<quad4 id="8">1531,1612,1603,1522</quad4>
			<quad4 id="9">1675,1756,1747,1666</quad4>
			<quad4 id="10">1666,1747,1738,1657</quad4>
			<quad4 id="11">1657,1738,1729,1648</quad4>
			<quad4 id="12">1648,1729,1720,1639</quad4>
			<quad4 id="13">1639,1720,1711,1630</quad4>
			<quad4 id="14">1630,1711,1702,1621</quad4>
			<quad4 id="15">1621,1702,1693,1612</quad4>
			<quad4 id="16">1612,1693,1684,1603</quad4>
			<quad4 id="17">1756,1837,1828,1747</quad4>
			<quad4 id="18">1747,1828,1819,1738</quad4>
			<quad4 id="19">1738,1819,1810,1729</quad4>
			<quad4 id="20">1729,1810,1801,1720</quad4>
<!-- ... 44 like lines cut -->
		</Surface>
		<SurfacePair name="GapHeatFlux">
			<primary>GapHeatFlux_slave</primary>
			<secondary>GapHeatFlux_master</secondary>
		</SurfacePair>
	</Mesh>
	<MeshDomains>
		<SolidDomain name="Part1" mat="bottom"/>
		<SolidDomain name="Part2" mat="top"/>
	</MeshDomains>
	<Boundary>
		<bc name="FixedTemperature01" type="fix" node_set="FixedTemperature1">
			<dofs>T</dofs>
		</bc>
		<bc name="PrescribedTemperature1" type="prescribe" node_set="PrescribedTemperature1">
			<dof>T</dof>
			<scale lc="1">1</scale>
			<relative>0</relative>
		</bc>
	</Boundary>
	<Contact>
		<contact type="gap heat flux" name="GapHeatFlux" surface_pair="GapHeatFlux">
			<hc>10</hc>
			<search_tol>0.01</search_tol>
		</contact>
	</Contact>
	<LoadData>
		<load_controller id="1" type="loadcurve">
			<interpolate>SMOOTH</interpolate>
			<points>
				<point>0,0</point>
				<point>1,1</point>
			</points>
		</load_controller>
	</LoadData>
	<Output>
		<plotfile type="febio">
			<var type="temperature"/>
			<var type="heat flux"/>
		</plotfile>
	</Output>
</febio_spec>
