<?xml version="1.0" encoding="ISO-8859-1"?>
<febio_spec version="3.0">
	<Module type="solid"/>
	<Control>
		<analysis>STATIC</analysis>
		<time_steps>200</time_steps>
		<step_size>0.5</step_size>
		<solver>
			<max_refs>15</max_refs>
			<max_ups>10</max_ups>
			<diverge_reform>1</diverge_reform>
			<reform_each_time_step>1</reform_each_time_step>
			<dtol>0.001</dtol>
			<etol>0.01</etol>
			<rtol>0</rtol>
			<lstol>0.9</lstol>
			<min_residual>1e-20</min_residual>
			<qnmethod>BFGS</qnmethod>
			<rhoi>-2</rhoi>
		</solver>
		<time_stepper>
			<dtmin>0.01</dtmin>
			<dtmax lc="1"></dtmax>
			<max_retries>5</max_retries>
			<opt_iter>100</opt_iter>
		</time_stepper>
	</Control>
	<Globals>
		<Constants>
			<T>0</T>
			<R>0</R>
			<Fc>0</Fc>
		</Constants>
	</Globals>
	<Material>
		<material id="1" name="Material1" type="uncoupled viscoelastic">
			<density>1</density>
			<g1>0.288</g1>
			<g2>0.288</g2>
			<g3>0.288</g3>
			<g4>0.288</g4>
			<g5>0.288</g5>
			<g6>0</g6>
			<t1>0.01</t1>
			<t2>0.1</t2>
			<t3>1</t3>
			<t4>10</t4>
			<t5>100</t5>
			<t6>1</t6>
			<k>0</k>
			<elastic name="Material2" type="trans iso Mooney-Rivlin">
				<density>1</density>
				<c1>47.93</c1>
				<c2>-40.46</c2>
				<c3>2.36</c3>
				<c4>76.9</c4>
				<c5>1584</c5>
				<lam_max>1.03</lam_max>
				<k>5000</k>
				<fiber type="vector">0,1,0</fiber>
			</elastic>
		</material>
	</Material>
	<Mesh>
		<Nodes name="Object01">
			<node id="1">-0.5,-0.5,0</node>
			<node id="2">-0.5,-0.5,0.2</node>
			<node id="3">-0.5,-0.5,0.4</node>
			<node id="4">-0.5,-0.5,0.6</node>
			<node id="5">-0.5,-0.5,0.8</node>
			<node id="6">-0.5,-0.5,1</node>
			<node id="7">-0.5,-0.3,0</node>
			<node id="8">-0.5,-0.3,0.2</node>
			<node id="9">-0.5,-0.3,0.4</node>
			<node id="10">-0.5,-0.3,0.6</node>
			<node id="11">-0.5,-0.3,0.8</node>
			<node id="12">-0.5,-0.3,1</node>
			<node id="13">-0.5,-0.1,0</node>
			<node id="14">-0.5,-0.1,0.2</node>
			<node id="15">-0.5,-0.1,0.4</node>
			<node id="16">-0.5,-0.1,0.6</node>
			<node id="17">-0.5,-0.1,0.8</node>
			<node id="18">-0.5,-0.1,1</node>
			<node id="19">-0.5,0.1,0</node>
			<node id="20">-0.5,0.1,0.2</node>
<!-- ... 196 like lines cut -->
		</Nodes>
		<Elements type="hex8" name="Part7">
			<elem id="1">1,37,43,7,2,38,44,8</elem>
			<elem id="2">2,38,44,8,3,39,45,9</elem>
			<elem id="3">3,39,45,9,4,40,46,10</elem>
			<elem id="4">4,40,46,10,5,41,47,11</elem>
			<elem id="5">5,41,47,11,6,42,48,12</elem>
			<elem id="6">7,43,49,13,8,44,50,14</elem>
			<elem id="7">8,44,50,14,9,45,51,15</elem>
			<elem id="8">9,45,51,15,10,46,52,16</elem>
			<elem id="9">10,46,52,16,11,47,53,17</elem>
			<elem id="10">11,47,53,17,12,48,54,18</elem>
			<elem id="11">13,49,55,19,14,50,56,20</elem>
			<elem id="12">14,50,56,20,15,51,57,21</elem>
			<elem id="13">15,51,57,21,16,52,58,22</elem>
			<elem id="14">16,52,58,22,17,53,59,23</elem>
			<elem id="15">17,53,59,23,18,54,60,24</elem>
			<elem id="16">19,55,61,25,20,56,62,26</elem>
			<elem id="17">20,56,62,26,21,57,63,27</elem>
			<elem id="18">21,57,63,27,22,58,64,28</elem>
			<elem id="19">22,58,64,28,23,59,65,29</elem>
			<elem id="20">23,59,65,29,24,60,66,30</elem>
<!-- ... 105 like lines cut -->
		</Elements>
		<NodeSet name="FixedDisplacement01">
			<n id="1"/>
			<n id="2"/>
			<n id="3"/>
			<n id="4"/>
			<n id="5"/>
			<n id="6"/>
			<n id="37"/>
			<n id="38"/>
			<n id="39"/>
			<n id="40"/>
			<n id="41"/>
			<n id="42"/>
			<n id="73"/>
			<n id="74"/>
			<n id="75"/>
			<n id="76"/>
			<n id="77"/>
			<n id="78"/>
			<n id="109"/>
			<n id="110"/>
<!-- ... 16 like lines cut -->
		</NodeSet>
		<NodeSet name="FixedDisplacement02">
			<n id="1"/>
			<n id="2"/>
			<n id="3"/>
			<n id="4"/>
			<n id="5"/>
			<n id="6"/>
			<n id="7"/>
			<n id="8"/>
			<n id="9"/>
			<n id="10"/>
			<n id="11"/>
			<n id="12"/>
			<n id="13"/>
			<n id="14"/>
			<n id="15"/>
			<n id="16"/>
			<n id="17"/>
			<n id="18"/>
			<n id="19"/>
			<n id="20"/>
<!-- ... 16 like lines cut -->
		</NodeSet>
		<NodeSet name="FixedDisplacement03">
			<n id="1"/>
			<n id="7"/>
			<n id="13"/>
			<n id="19"/>
			<n id="25"/>
			<n id="31"/>
			<n id="37"/>
			<n id="43"/>
			<n id="49"/>
			<n id="55"/>
			<n id="61"/>
			<n id="67"/>
			<n id="73"/>
			<n id="79"/>
			<n id="85"/>
			<n id="91"/>
			<n id="97"/>
			<n id="103"/>
			<n id="109"/>
			<n id="115"/>
<!-- ... 16 like lines cut -->
		</NodeSet>
		<NodeSet name="PrescribedBC141">
			<n id="31"/>
			<n id="32"/>
			<n id="33"/>
			<n id="34"/>
			<n id="35"/>
			<n id="36"/>
			<n id="67"/>
			<n id="68"/>
			<n id="69"/>
			<n id="70"/>
			<n id="71"/>
			<n id="72"/>
			<n id="103"/>
			<n id="104"/>
			<n id="105"/>
			<n id="106"/>
			<n id="107"/>
			<n id="108"/>
			<n id="139"/>
			<n id="140"/>
<!-- ... 16 like lines cut -->
		</NodeSet>
		<ElementSet name="unnamed_set01">
			<e id="73"/>
		</ElementSet>
	</Mesh>
	<MeshDomains>
		<SolidDomain name="Part7" mat="Material1"/>
	</MeshDomains>
	<Boundary>
		<bc name="FixedDisplacement01" type="fix" node_set="FixedDisplacement01">
			<dofs>y</dofs>
		</bc>
		<bc name="FixedDisplacement02" type="fix" node_set="FixedDisplacement02">
			<dofs>x</dofs>
		</bc>
		<bc name="FixedDisplacement03" type="fix" node_set="FixedDisplacement03">
			<dofs>z</dofs>
		</bc>
		<bc name="PrescribedBC141" type="prescribe" node_set="PrescribedBC141">
			<dof>y</dof>
			<scale lc="2">1</scale>
			<relative>0</relative>
		</bc>
	</Boundary>
	<LoadData>
		<load_controller id="1" type="loadcurve">
			<interpolate>STEP</interpolate>
			<points>
				<point>0,0.5</point>
				<point>5,0.5</point>
				<point>10,0.5</point>
				<point>15,0.5</point>
				<point>20,0.5</point>
				<point>25,0.5</point>
				<point>30,0.5</point>
				<point>35,0.5</point>
				<point>40,0.5</point>
				<point>45,0.5</point>
				<point>50,0.5</point>
				<point>55,0.5</point>
				<point>60,0.5</point>
				<point>65,0.5</point>
				<point>70,0.5</point>
				<point>75,0.5</point>
				<point>80,0.5</point>
				<point>85,0.5</point>
				<point>90,0.5</point>
				<point>95,0.5</point>
				<point>100,0.5</point>
			</points>
		</load_controller>
		<load_controller id="2" type="loadcurve">
			<interpolate>LINEAR</interpolate>
			<points>
				<point>0,0</point>
				<point>5,0.03</point>
				<point>10,0.015</point>
				<point>15,0.03</point>
				<point>20,0.015</point>
				<point>25,0.03</point>
				<point>30,0.015</point>
				<point>35,0.03</point>
				<point>40,0.015</point>
				<point>45,0.03</point>
				<point>50,0.015</point>
				<point>55,0.03</point>
				<point>60,0.015</point>
				<point>65,0.03</point>
				<point>70,0.015</point>
				<point>75,0.03</point>
				<point>80,0.015</point>
				<point>85,0.03</point>
				<point>90,0.015</point>
				<point>95,0.03</point>
				<point>100,0.015</point>
			</points>
		</load_controller>
	</LoadData>
	<Output>
		<plotfile type="febio">
			<var type="displacement"/>
			<var type="stress"/>
		</plotfile>
		<logfile>
			<element_data data="s3" elem_set="unnamed_set01"/>
		</logfile>
	</Output>
</febio_spec>
