<?xml version="1.0" encoding="ISO-8859-1"?>
<!--
An elastic cylindrical section with quarter symmetry is subject to a pressure
that varies between 0 at time t=0 to 0.5 at time t=1.

This problem can be compared to ma10, which uses a poroelastic material.
-->
<febio_spec version="3.0">
	<Module type="solid"/>
	<Control>
		<analysis>STATIC</analysis>
		<time_steps>10</time_steps>
		<step_size>0.1</step_size>
		<solver>
			<max_refs>20</max_refs>
			<max_ups>0</max_ups>
			<diverge_reform>1</diverge_reform>
			<reform_each_time_step>1</reform_each_time_step>
			<dtol>0.001</dtol>
			<etol>0.01</etol>
			<rtol>0</rtol>
			<lstol>0.9</lstol>
			<min_residual>1e-20</min_residual>
			<qnmethod>BFGS</qnmethod>
			<rhoi>-2</rhoi>
		</solver>
		<time_stepper>
			<dtmin>0.01</dtmin>
			<dtmax lc="1"></dtmax>
			<max_retries>5</max_retries>
			<opt_iter>10</opt_iter>
		</time_stepper>
	</Control>
	<Globals>
		<Constants>
			<T>0</T>
			<R>0</R>
			<Fc>0</Fc>
		</Constants>
	</Globals>
	<Material>
		<material id="1" name="Solid Matrix" type="Holmes-Mow">
			<density>1</density>
			<E>1</E>
			<v>0</v>
			<beta>0.5</beta>
		</material>
	</Material>
	<Mesh>
		<Nodes name="Object01">
			<node id="1">0.5,0,0</node>
			<node id="2">0.50963069,0,0</node>
			<node id="3">0.52118752,0,0</node>
			<node id="4">0.53505571,0,0</node>
			<node id="5">0.55169754,0,0</node>
			<node id="6">0.57166774,0,0</node>
			<node id="7">0.59563197,0,0</node>
			<node id="8">0.62438906,0,0</node>
			<node id="9">0.65889756,0,0</node>
			<node id="10">0.70030776,0,0</node>
			<node id="11">0.75,0,0</node>
			<node id="12">0.79969224,0,0</node>
			<node id="13">0.84110244,0,0</node>
			<node id="14">0.87561094,0,0</node>
			<node id="15">0.90436803,0,0</node>
			<node id="16">0.92833226,0,0</node>
			<node id="17">0.94830246,0,0</node>
			<node id="18">0.96494429,0,0</node>
			<node id="19">0.97881248,0,0</node>
			<node id="20">0.99036931,0,0</node>
<!-- ... 358 like lines cut -->
		</Nodes>
		<Elements type="hex8" name="Part8">
			<elem id="1">1,2,23,22,190,191,212,211</elem>
			<elem id="2">2,3,24,23,191,192,213,212</elem>
			<elem id="3">3,4,25,24,192,193,214,213</elem>
			<elem id="4">4,5,26,25,193,194,215,214</elem>
			<elem id="5">5,6,27,26,194,195,216,215</elem>
			<elem id="6">6,7,28,27,195,196,217,216</elem>
			<elem id="7">7,8,29,28,196,197,218,217</elem>
			<elem id="8">8,9,30,29,197,198,219,218</elem>
			<elem id="9">9,10,31,30,198,199,220,219</elem>
			<elem id="10">10,11,32,31,199,200,221,220</elem>
			<elem id="11">11,12,33,32,200,201,222,221</elem>
			<elem id="12">12,13,34,33,201,202,223,222</elem>
			<elem id="13">13,14,35,34,202,203,224,223</elem>
			<elem id="14">14,15,36,35,203,204,225,224</elem>
			<elem id="15">15,16,37,36,204,205,226,225</elem>
			<elem id="16">16,17,38,37,205,206,227,226</elem>
			<elem id="17">17,18,39,38,206,207,228,227</elem>
			<elem id="18">18,19,40,39,207,208,229,228</elem>
			<elem id="19">19,20,41,40,208,209,230,229</elem>
			<elem id="20">20,21,42,41,209,210,231,230</elem>
<!-- ... 140 like lines cut -->
		</Elements>
		<NodeSet name="FixedDisplacement01">
			<n id="169"/>
			<n id="170"/>
			<n id="171"/>
			<n id="172"/>
			<n id="173"/>
			<n id="174"/>
			<n id="175"/>
			<n id="176"/>
			<n id="177"/>
			<n id="178"/>
			<n id="179"/>
			<n id="180"/>
			<n id="181"/>
			<n id="182"/>
			<n id="183"/>
			<n id="184"/>
			<n id="185"/>
			<n id="186"/>
			<n id="187"/>
			<n id="188"/>
<!-- ... 22 like lines cut -->
		</NodeSet>
		<NodeSet name="FixedDisplacement02">
			<n id="1"/>
			<n id="2"/>
			<n id="3"/>
			<n id="4"/>
			<n id="5"/>
			<n id="6"/>
			<n id="7"/>
			<n id="8"/>
			<n id="9"/>
			<n id="10"/>
			<n id="11"/>
			<n id="12"/>
			<n id="13"/>
			<n id="14"/>
			<n id="15"/>
			<n id="16"/>
			<n id="17"/>
			<n id="18"/>
			<n id="19"/>
			<n id="20"/>
<!-- ... 22 like lines cut -->
		</NodeSet>
		<NodeSet name="FixedDisplacement03">
			<n id="1"/>
			<n id="2"/>
			<n id="3"/>
			<n id="4"/>
			<n id="5"/>
			<n id="6"/>
			<n id="7"/>
			<n id="8"/>
			<n id="9"/>
			<n id="10"/>
			<n id="11"/>
			<n id="12"/>
			<n id="13"/>
			<n id="14"/>
			<n id="15"/>
			<n id="16"/>
			<n id="17"/>
			<n id="18"/>
			<n id="19"/>
			<n id="20"/>
<!-- ... 358 like lines cut -->
		</NodeSet>
		<Surface name="PressureLoad1">
			<quad4 id="1">22,1,190,211</quad4>
			<quad4 id="2">43,22,211,232</quad4>
			<quad4 id="3">64,43,232,253</quad4>
			<quad4 id="4">85,64,253,274</quad4>
			<quad4 id="5">106,85,274,295</quad4>
			<quad4 id="6">127,106,295,316</quad4>
			<quad4 id="7">148,127,316,337</quad4>
			<quad4 id="8">169,148,337,358</quad4>
		</Surface>
		<ElementSet name="unnamed_set01">
			<e id="1"/>
		</ElementSet>
	</Mesh>
	<MeshDomains>
		<SolidDomain name="Part8" mat="Solid Matrix"/>
	</MeshDomains>
	<Boundary>
		<bc name="FixedDisplacement01" type="fix" node_set="FixedDisplacement01">
			<dofs>x</dofs>
		</bc>
		<bc name="FixedDisplacement02" type="fix" node_set="FixedDisplacement02">
			<dofs>y</dofs>
		</bc>
		<bc name="FixedDisplacement03" type="fix" node_set="FixedDisplacement03">
			<dofs>z</dofs>
		</bc>
	</Boundary>
	<Loads>
		<surface_load name="PressureLoad1" type="pressure" surface="PressureLoad1">
			<pressure lc="2">1</pressure>
			<linear>0</linear>
			<symmetric_stiffness>1</symmetric_stiffness>
		</surface_load>
	</Loads>
	<LoadData>
		<load_controller id="1" type="loadcurve">
			<interpolate>STEP</interpolate>
			<points>
				<point>0,0</point>
				<point>1,0.1</point>
				<point>2000,100</point>
			</points>
		</load_controller>
		<load_controller id="2" type="loadcurve">
			<interpolate>SMOOTH</interpolate>
			<points>
				<point>0,0</point>
				<point>1,0.5</point>
			</points>
		</load_controller>
	</LoadData>
	<Output>
		<plotfile type="febio">
			<var type="displacement"/>
			<var type="stress"/>
		</plotfile>
		<logfile>
			<element_data data="sy" elem_set="unnamed_set01"/>
		</logfile>
	</Output>
</febio_spec>
