<?xml version="1.0" encoding="ISO-8859-1"?>
<!--
A 5x6x5 element block undergoes a prescribed displacement of 1 unit in the z-direction.
Nodal constraints are specified for the 1/8th symmetric representation of the expansion
of a block in the z-direction.

Similar to problem ma03 (linear orthotropic).
-->
<febio_spec version="3.0">
	<Module type="solid"/>
	<Control>
		<analysis>STATIC</analysis>
		<time_steps>10</time_steps>
		<step_size>0.1</step_size>
		<solver>
			<max_refs>15</max_refs>
			<max_ups>10</max_ups>
			<diverge_reform>1</diverge_reform>
			<reform_each_time_step>1</reform_each_time_step>
			<dtol>0.001</dtol>
			<etol>0.01</etol>
			<rtol>0</rtol>
			<lstol>0.9</lstol>
			<min_residual>1e-20</min_residual>
			<qnmethod>BFGS</qnmethod>
			<rhoi>-2</rhoi>
		</solver>
		<time_stepper>
			<dtmin>0.01</dtmin>
			<dtmax>0.1</dtmax>
			<max_retries>5</max_retries>
			<opt_iter>10</opt_iter>
		</time_stepper>
	</Control>
	<Globals>
		<Constants>
			<T>0</T>
			<R>0</R>
			<Fc>0</Fc>
		</Constants>
	</Globals>
	<Material>
		<material id="1" name="Material 1" type="Fung orthotropic">
			<density>1</density>
			<E1>1</E1>
			<E2>1</E2>
			<E3>1</E3>
			<G12>3</G12>
			<G23>3</G23>
			<G31>3</G31>
			<v12>0.2</v12>
			<v23>0.2</v23>
			<v31>0.2</v31>
			<c>1</c>
			<k>100</k>
		</material>
	</Material>
	<Mesh>
		<Nodes name="Object01">
			<node id="1">-0.5,-0.5,0</node>
			<node id="2">-0.5,-0.5,0.2</node>
			<node id="3">-0.5,-0.5,0.4</node>
			<node id="4">-0.5,-0.5,0.6</node>
			<node id="5">-0.5,-0.5,0.8</node>
			<node id="6">-0.5,-0.5,1</node>
			<node id="7">-0.5,-0.33333333,0</node>
			<node id="8">-0.5,-0.33333333,0.2</node>
			<node id="9">-0.5,-0.33333333,0.4</node>
			<node id="10">-0.5,-0.33333333,0.6</node>
			<node id="11">-0.5,-0.33333333,0.8</node>
			<node id="12">-0.5,-0.33333333,1</node>
			<node id="13">-0.5,-0.16666667,0</node>
			<node id="14">-0.5,-0.16666667,0.2</node>
			<node id="15">-0.5,-0.16666667,0.4</node>
			<node id="16">-0.5,-0.16666667,0.6</node>
			<node id="17">-0.5,-0.16666667,0.8</node>
			<node id="18">-0.5,-0.16666667,1</node>
			<node id="19">-0.5,-5.5511151e-17,0</node>
			<node id="20">-0.5,-5.5511151e-17,0.2</node>
<!-- ... 232 like lines cut -->
		</Nodes>
		<Elements type="hex8" name="Part9">
			<elem id="1">1,43,49,7,2,44,50,8</elem>
			<elem id="2">2,44,50,8,3,45,51,9</elem>
			<elem id="3">3,45,51,9,4,46,52,10</elem>
			<elem id="4">4,46,52,10,5,47,53,11</elem>
			<elem id="5">5,47,53,11,6,48,54,12</elem>
			<elem id="6">7,49,55,13,8,50,56,14</elem>
			<elem id="7">8,50,56,14,9,51,57,15</elem>
			<elem id="8">9,51,57,15,10,52,58,16</elem>
			<elem id="9">10,52,58,16,11,53,59,17</elem>
			<elem id="10">11,53,59,17,12,54,60,18</elem>
			<elem id="11">13,55,61,19,14,56,62,20</elem>
			<elem id="12">14,56,62,20,15,57,63,21</elem>
			<elem id="13">15,57,63,21,16,58,64,22</elem>
			<elem id="14">16,58,64,22,17,59,65,23</elem>
			<elem id="15">17,59,65,23,18,60,66,24</elem>
			<elem id="16">19,61,67,25,20,62,68,26</elem>
			<elem id="17">20,62,68,26,21,63,69,27</elem>
			<elem id="18">21,63,69,27,22,64,70,28</elem>
			<elem id="19">22,64,70,28,23,65,71,29</elem>
			<elem id="20">23,65,71,29,24,66,72,30</elem>
<!-- ... 130 like lines cut -->
		</Elements>
		<NodeSet name="FixedDisplacement01">
			<n id="1"/>
			<n id="7"/>
			<n id="13"/>
			<n id="19"/>
			<n id="25"/>
			<n id="31"/>
			<n id="37"/>
			<n id="43"/>
			<n id="49"/>
			<n id="55"/>
			<n id="61"/>
			<n id="67"/>
			<n id="73"/>
			<n id="79"/>
			<n id="85"/>
			<n id="91"/>
			<n id="97"/>
			<n id="103"/>
			<n id="109"/>
			<n id="115"/>
<!-- ... 22 like lines cut -->
		</NodeSet>
		<NodeSet name="FixedDisplacement02">
			<n id="1"/>
			<n id="2"/>
			<n id="3"/>
			<n id="4"/>
			<n id="5"/>
			<n id="6"/>
			<n id="43"/>
			<n id="44"/>
			<n id="45"/>
			<n id="46"/>
			<n id="47"/>
			<n id="48"/>
			<n id="85"/>
			<n id="86"/>
			<n id="87"/>
			<n id="88"/>
			<n id="89"/>
			<n id="90"/>
			<n id="127"/>
			<n id="128"/>
<!-- ... 16 like lines cut -->
		</NodeSet>
		<NodeSet name="FixedDisplacement03">
			<n id="1"/>
			<n id="2"/>
			<n id="3"/>
			<n id="4"/>
			<n id="5"/>
			<n id="6"/>
			<n id="7"/>
			<n id="8"/>
			<n id="9"/>
			<n id="10"/>
			<n id="11"/>
			<n id="12"/>
			<n id="13"/>
			<n id="14"/>
			<n id="15"/>
			<n id="16"/>
			<n id="17"/>
			<n id="18"/>
			<n id="19"/>
			<n id="20"/>
<!-- ... 22 like lines cut -->
		</NodeSet>
		<NodeSet name="PrescribedBC142">
			<n id="6"/>
			<n id="12"/>
			<n id="18"/>
			<n id="24"/>
			<n id="30"/>
			<n id="36"/>
			<n id="42"/>
			<n id="48"/>
			<n id="54"/>
			<n id="60"/>
			<n id="66"/>
			<n id="72"/>
			<n id="78"/>
			<n id="84"/>
			<n id="90"/>
			<n id="96"/>
			<n id="102"/>
			<n id="108"/>
			<n id="114"/>
			<n id="120"/>
<!-- ... 22 like lines cut -->
		</NodeSet>
		<ElementSet name="unnamed_set01">
			<e id="1"/>
		</ElementSet>
	</Mesh>
	<MeshDomains>
		<SolidDomain name="Part9" mat="Material 1"/>
	</MeshDomains>
	<Boundary>
		<bc name="FixedDisplacement01" type="fix" node_set="FixedDisplacement01">
			<dofs>z</dofs>
		</bc>
		<bc name="FixedDisplacement02" type="fix" node_set="FixedDisplacement02">
			<dofs>y</dofs>
		</bc>
		<bc name="FixedDisplacement03" type="fix" node_set="FixedDisplacement03">
			<dofs>x</dofs>
		</bc>
		<bc name="PrescribedBC142" type="prescribe" node_set="PrescribedBC142">
			<dof>z</dof>
			<scale lc="1">1</scale>
			<relative>0</relative>
		</bc>
	</Boundary>
	<LoadData>
		<load_controller id="1" type="loadcurve">
			<interpolate>LINEAR</interpolate>
			<points>
				<point>0,0</point>
				<point>1,1</point>
			</points>
		</load_controller>
	</LoadData>
	<Output>
		<plotfile type="febio">
			<var type="displacement"/>
			<var type="stress"/>
		</plotfile>
		<logfile>
			<element_data data="sz" elem_set="unnamed_set01"/>
		</logfile>
	</Output>
</febio_spec>
