<?xml version="1.0" encoding="ISO-8859-1"?>
<!--
Problem Description:
	Uniaxial loading of a bar that is rotated about the Z-axis by 30 degrees.
	The preferred material directions are aligned along and perpendicular
	to the long axis of the bar.
Main Features:
	Material directions not along coordinate axes.
Secondary Features:
	Pressure
Materials:
	Linear Orthotropic
Degrees of Freedom: 132
Results:
	Steps Completed: 10
	Equilibrium Iterations: 52
	Right Hand Evaluations: 62
	Siffness Reformations: 10
	Other:
		The end of the bar has a total displacement of 0.85 units at time t = 1.
Comments:
	
-->
<febio_spec version="3.0">
	<Module type="solid"/>
	<Control>
		<analysis>STATIC</analysis>
		<time_steps>10</time_steps>
		<step_size>0.1</step_size>
		<solver>
			<max_refs>15</max_refs>
			<max_ups>10</max_ups>
			<diverge_reform>1</diverge_reform>
			<reform_each_time_step>1</reform_each_time_step>
			<dtol>0.001</dtol>
			<etol>0.01</etol>
			<rtol>0</rtol>
			<lstol>0.9</lstol>
			<min_residual>1e-20</min_residual>
			<qnmethod>BFGS</qnmethod>
			<rhoi>-2</rhoi>
		</solver>
		<time_stepper>
			<dtmin>0.01</dtmin>
			<dtmax>0.1</dtmax>
			<max_retries>5</max_retries>
			<opt_iter>10</opt_iter>
		</time_stepper>
	</Control>
	<Globals>
		<Constants>
			<T>0</T>
			<R>0</R>
			<Fc>0</Fc>
		</Constants>
	</Globals>
	<Material>
		<material id="1" name="Material1" type="orthotropic elastic">
			<density>1</density>
			<E1>1</E1>
			<E2>2</E2>
			<E3>3</E3>
			<G12>3</G12>
			<G23>2</G23>
			<G31>1</G31>
			<v12>0.3</v12>
			<v23>0.2</v23>
			<v31>0.1</v31>
			<mat_axis type="vector">
				<a>0.866,0.5,0</a>
				<d>-0.5,0.866,0</d>
			</mat_axis>
		</material>
	</Material>
	<Mesh>
		<Nodes name="Object01">
			<node id="1">-4.080127,-2.9330127,5.5511151e-17</node>
			<node id="2">-4.080127,-2.9330127,1</node>
			<node id="3">-4.580127,-2.0669873,5.5511151e-17</node>
			<node id="4">-4.580127,-2.0669873,1</node>
			<node id="5">-3.2928312,-2.4784672,5.5511151e-17</node>
			<node id="6">-3.2928312,-2.4784672,1</node>
			<node id="7">-3.7928312,-1.6124418,5.5511151e-17</node>
			<node id="8">-3.7928312,-1.6124418,1</node>
			<node id="9">-2.5055354,-2.0239218,5.5511151e-17</node>
			<node id="10">-2.5055354,-2.0239218,1</node>
			<node id="11">-3.0055354,-1.1578964,5.5511151e-17</node>
			<node id="12">-3.0055354,-1.1578964,1</node>
			<node id="13">-1.7182396,-1.5693763,5.5511151e-17</node>
			<node id="14">-1.7182396,-1.5693763,1</node>
			<node id="15">-2.2182396,-0.70335091,5.5511151e-17</node>
			<node id="16">-2.2182396,-0.70335091,1</node>
			<node id="17">-0.93094374,-1.1148309,5.5511151e-17</node>
			<node id="18">-0.93094374,-1.1148309,1</node>
			<node id="19">-1.4309437,-0.24880547,5.5511151e-17</node>
			<node id="20">-1.4309437,-0.24880547,1</node>
<!-- ... 28 like lines cut -->
		</Nodes>
		<Elements type="hex8" name="Part12">
			<elem id="1">     1,     5,     7,     3,     2,     6,     8,     4</elem>
			<elem id="2">     5,     9,    11,     7,     6,    10,    12,     8</elem>
			<elem id="3">     9,    13,    15,    11,    10,    14,    16,    12</elem>
			<elem id="4">    13,    17,    19,    15,    14,    18,    20,    16</elem>
			<elem id="5">    17,    21,    23,    19,    18,    22,    24,    20</elem>
			<elem id="6">    21,    25,    27,    23,    22,    26,    28,    24</elem>
			<elem id="7">    25,    29,    31,    27,    26,    30,    32,    28</elem>
			<elem id="8">    29,    33,    35,    31,    30,    34,    36,    32</elem>
			<elem id="9">    33,    37,    39,    35,    34,    38,    40,    36</elem>
			<elem id="10">    37,    41,    43,    39,    38,    42,    44,    40</elem>
			<elem id="11">    41,    45,    47,    43,    42,    46,    48,    44</elem>
		</Elements>
		<NodeSet name="FixedDisplacement01">
			<n id="1"/>
			<n id="2"/>
			<n id="3"/>
			<n id="4"/>
		</NodeSet>
		<NodeSet name="FixedDisplacement02">
			<n id="1"/>
			<n id="2"/>
			<n id="3"/>
			<n id="4"/>
		</NodeSet>
		<NodeSet name="FixedDisplacement03">
			<n id="1"/>
			<n id="2"/>
			<n id="3"/>
			<n id="4"/>
		</NodeSet>
		<Surface name="PressureLoad1">
			<quad4 id="1">    45,    47,    48,    46</quad4>
		</Surface>
		<ElementSet name="unnamed_set01">
			<e id="1"/>
		</ElementSet>
	</Mesh>
	<MeshDomains>
		<SolidDomain name="Part12" mat="Material1"/>
	</MeshDomains>
	<Boundary>
		<bc name="FixedDisplacement01" type="fix" node_set="FixedDisplacement01">
			<dofs>z</dofs>
		</bc>
		<bc name="FixedDisplacement02" type="fix" node_set="FixedDisplacement02">
			<dofs>y</dofs>
		</bc>
		<bc name="FixedDisplacement03" type="fix" node_set="FixedDisplacement03">
			<dofs>x</dofs>
		</bc>
	</Boundary>
	<Loads>
		<surface_load name="PressureLoad1" type="pressure" surface="PressureLoad1">
			<pressure lc="1">-1</pressure>
			<linear>0</linear>
			<symmetric_stiffness>1</symmetric_stiffness>
		</surface_load>
	</Loads>
	<LoadData>
		<load_controller id="1" type="loadcurve">
			<interpolate>SMOOTH</interpolate>
			<points>
				<point>0,0</point>
				<point>1,0.1</point>
			</points>
		</load_controller>
	</LoadData>
	<Output>
		<plotfile type="febio">
			<var type="displacement"/>
			<var type="stress"/>
		</plotfile>
		<logfile>
			<element_data data="sy" elem_set="unnamed_set01"/>
		</logfile>
	</Output>
</febio_spec>
