<?xml version="1.0" encoding="ISO-8859-1"?>
<!--
A biphasic quarter symmetry cylinder of 300 elements is stretched to 3% strain
along the z direction (fiber direction) in 6 seconds and then held at that strain 
to 450 seconds.  A 0 fluid pressure constraint is applied to the curved surface of the cylinder. 
The solid component of the biphasic material is represented by the PRLig material, 
and the large lateral contraction caused by the Poisson's Ratio causes a
large pressure buildup and fluid to exude outward laterally from the cylinder.
This results in stress relaxation, which is evident in a large peak stress which relaxes to 
a smaller equilibrium stress. 



Max z-stress = 9.75319 at t = 5.8
-->
<febio_spec version="3.0">
	<Module type="biphasic"/>
	<Control>
		<analysis>TRANSIENT</analysis>
		<time_steps>45000</time_steps>
		<step_size>0.01</step_size>
		<solver>
			<max_refs>50</max_refs>
			<max_ups>20</max_ups>
			<diverge_reform>1</diverge_reform>
			<reform_each_time_step>1</reform_each_time_step>
			<dtol>0.002</dtol>
			<etol>0.001</etol>
			<rtol>0</rtol>
			<ptol>0.01</ptol>
			<lstol>0.9</lstol>
			<min_residual>1e-20</min_residual>
			<qnmethod>BFGS</qnmethod>
			<mixed_formulation>default</mixed_formulation>
		</solver>
		<time_stepper>
			<dtmin>5e-05</dtmin>
			<dtmax lc="1"></dtmax>
			<max_retries>10</max_retries>
			<opt_iter>50</opt_iter>
		</time_stepper>
	</Control>
	<Globals>
		<Constants>
			<T>0</T>
			<R>0</R>
			<Fc>0</Fc>
		</Constants>
	</Globals>
	<Material>
		<material id="1" name="Material1" type="biphasic">
			<phi0>0.3</phi0>
			<fluid_density>1</fluid_density>
			<solid type="PRLig">
				<density>1</density>
				<c1>90</c1>
				<c2>160</c2>
				<v0>5.85</v0>
				<m>-100</m>
				<mu>0.025</mu>
				<k>1.55</k>
				<mat_axis type="vector">
					<a>0,0,1</a>
					<d>1,0,0</d>
				</mat_axis>
			</solid>
			<permeability type="perm-Holmes-Mow">
				<perm>0.003</perm>
				<M>8</M>
				<alpha>2</alpha>
			</permeability>
		</material>
	</Material>
	<Mesh>
		<Nodes name="Object01">
			<node id="1">0,0,0</node>
			<node id="2">0.098606363,0,0</node>
			<node id="3">0.098066187,0.010307171,0</node>
			<node id="4">0.096451577,0.020501415,0</node>
			<node id="5">0.093780224,0.030471041,0</node>
			<node id="6">0.090081395,0.04010682,0</node>
			<node id="7">0.085395616,0.049303181,0</node>
			<node id="8">0.079774224,0.057959365,0</node>
			<node id="9">0.073278809,0.065980534,0</node>
			<node id="10">0.065980536,0.073278807,0</node>
			<node id="11">0.057959367,0.079774222,0</node>
			<node id="12">0.049303183,0.085395614,0</node>
			<node id="13">0.040106823,0.090081394,0</node>
			<node id="14">0.030471044,0.093780223,0</node>
			<node id="15">0.020501418,0.096451577,0</node>
			<node id="16">0.010307174,0.098066187,0</node>
			<node id="17">2.6421473e-09,0.098606363,0</node>
			<node id="18">0.18932422,0,0</node>
			<node id="19">0.18828708,0.019789769,0</node>
			<node id="20">0.18518703,0.039362717,0</node>
<!-- ... 622 like lines cut -->
		</Nodes>
		<Elements type="penta6" name="Part1">
			<elem id="1">     1,     2,     3,   322,   323,   324</elem>
			<elem id="2">     1,     3,     4,   322,   324,   325</elem>
			<elem id="3">     1,     4,     5,   322,   325,   326</elem>
			<elem id="4">     1,     5,     6,   322,   326,   327</elem>
			<elem id="5">     1,     6,     7,   322,   327,   328</elem>
			<elem id="6">     1,     7,     8,   322,   328,   329</elem>
			<elem id="7">     1,     8,     9,   322,   329,   330</elem>
			<elem id="8">     1,     9,    10,   322,   330,   331</elem>
			<elem id="9">     1,    10,    11,   322,   331,   332</elem>
			<elem id="10">     1,    11,    12,   322,   332,   333</elem>
			<elem id="11">     1,    12,    13,   322,   333,   334</elem>
			<elem id="12">     1,    13,    14,   322,   334,   335</elem>
			<elem id="13">     1,    14,    15,   322,   335,   336</elem>
			<elem id="14">     1,    15,    16,   322,   336,   337</elem>
			<elem id="15">     1,    16,    17,   322,   337,   338</elem>
		</Elements>
		<Elements type="hex8" name="Part1(2)">
			<elem id="16">     2,    18,    19,     3,   323,   339,   340,   324</elem>
			<elem id="17">     3,    19,    20,     4,   324,   340,   341,   325</elem>
			<elem id="18">     4,    20,    21,     5,   325,   341,   342,   326</elem>
			<elem id="19">     5,    21,    22,     6,   326,   342,   343,   327</elem>
			<elem id="20">     6,    22,    23,     7,   327,   343,   344,   328</elem>
			<elem id="21">     7,    23,    24,     8,   328,   344,   345,   329</elem>
			<elem id="22">     8,    24,    25,     9,   329,   345,   346,   330</elem>
			<elem id="23">     9,    25,    26,    10,   330,   346,   347,   331</elem>
			<elem id="24">    10,    26,    27,    11,   331,   347,   348,   332</elem>
			<elem id="25">    11,    27,    28,    12,   332,   348,   349,   333</elem>
			<elem id="26">    12,    28,    29,    13,   333,   349,   350,   334</elem>
			<elem id="27">    13,    29,    30,    14,   334,   350,   351,   335</elem>
			<elem id="28">    14,    30,    31,    15,   335,   351,   352,   336</elem>
			<elem id="29">    15,    31,    32,    16,   336,   352,   353,   337</elem>
			<elem id="30">    16,    32,    33,    17,   337,   353,   354,   338</elem>
			<elem id="31">    18,    34,    35,    19,   339,   355,   356,   340</elem>
			<elem id="32">    19,    35,    36,    20,   340,   356,   357,   341</elem>
			<elem id="33">    20,    36,    37,    21,   341,   357,   358,   342</elem>
			<elem id="34">    21,    37,    38,    22,   342,   358,   359,   343</elem>
			<elem id="35">    22,    38,    39,    23,   343,   359,   360,   344</elem>
<!-- ... 265 like lines cut -->
		</Elements>
		<NodeSet name="FixedDisplacement01">
			<n id="1"/>
			<n id="2"/>
			<n id="3"/>
			<n id="4"/>
			<n id="5"/>
			<n id="6"/>
			<n id="7"/>
			<n id="8"/>
			<n id="9"/>
			<n id="10"/>
			<n id="11"/>
			<n id="12"/>
			<n id="13"/>
			<n id="14"/>
			<n id="15"/>
			<n id="16"/>
			<n id="17"/>
			<n id="18"/>
			<n id="19"/>
			<n id="20"/>
<!-- ... 301 like lines cut -->
		</NodeSet>
		<NodeSet name="FixedDisplacement02">
			<n id="1"/>
			<n id="2"/>
			<n id="18"/>
			<n id="34"/>
			<n id="50"/>
			<n id="66"/>
			<n id="82"/>
			<n id="98"/>
			<n id="114"/>
			<n id="130"/>
			<n id="146"/>
			<n id="162"/>
			<n id="178"/>
			<n id="194"/>
			<n id="210"/>
			<n id="226"/>
			<n id="242"/>
			<n id="258"/>
			<n id="274"/>
			<n id="290"/>
<!-- ... 22 like lines cut -->
		</NodeSet>
		<NodeSet name="FixedDisplacement03">
			<n id="1"/>
			<n id="17"/>
			<n id="33"/>
			<n id="49"/>
			<n id="65"/>
			<n id="81"/>
			<n id="97"/>
			<n id="113"/>
			<n id="129"/>
			<n id="145"/>
			<n id="161"/>
			<n id="177"/>
			<n id="193"/>
			<n id="209"/>
			<n id="225"/>
			<n id="241"/>
			<n id="257"/>
			<n id="273"/>
			<n id="289"/>
			<n id="305"/>
<!-- ... 22 like lines cut -->
		</NodeSet>
		<NodeSet name="FixedFluidPressure01">
			<n id="306"/>
			<n id="307"/>
			<n id="308"/>
			<n id="309"/>
			<n id="310"/>
			<n id="311"/>
			<n id="312"/>
			<n id="313"/>
			<n id="314"/>
			<n id="315"/>
			<n id="316"/>
			<n id="317"/>
			<n id="318"/>
			<n id="319"/>
			<n id="320"/>
			<n id="321"/>
			<n id="627"/>
			<n id="628"/>
			<n id="629"/>
			<n id="630"/>
<!-- ... 12 like lines cut -->
		</NodeSet>
		<NodeSet name="PrescribedBC144">
			<n id="322"/>
			<n id="323"/>
			<n id="324"/>
			<n id="325"/>
			<n id="326"/>
			<n id="327"/>
			<n id="328"/>
			<n id="329"/>
			<n id="330"/>
			<n id="331"/>
			<n id="332"/>
			<n id="333"/>
			<n id="334"/>
			<n id="335"/>
			<n id="336"/>
			<n id="337"/>
			<n id="338"/>
			<n id="339"/>
			<n id="340"/>
			<n id="341"/>
<!-- ... 301 like lines cut -->
		</NodeSet>
		<ElementSet name="unnamed_set01">
			<e id="1"/>
		</ElementSet>
	</Mesh>
	<MeshDomains>
		<SolidDomain name="Part1" mat="Material1"/>
		<SolidDomain name="Part1(2)" mat="Material1"/>
	</MeshDomains>
	<Boundary>
		<bc name="FixedDisplacement01" type="fix" node_set="FixedDisplacement01">
			<dofs>z</dofs>
		</bc>
		<bc name="FixedDisplacement02" type="fix" node_set="FixedDisplacement02">
			<dofs>y</dofs>
		</bc>
		<bc name="FixedDisplacement03" type="fix" node_set="FixedDisplacement03">
			<dofs>x</dofs>
		</bc>
		<bc name="FixedFluidPressure01" type="fix" node_set="FixedFluidPressure01">
			<dofs>p</dofs>
		</bc>
		<bc name="PrescribedBC144" type="prescribe" node_set="PrescribedBC144">
			<dof>z</dof>
			<scale lc="2">1</scale>
			<relative>0</relative>
		</bc>
	</Boundary>
	<LoadData>
		<load_controller id="1" type="loadcurve">
			<interpolate>LINEAR</interpolate>
			<points>
				<point>0,0</point>
				<point>8,0.05</point>
				<point>10,0.5</point>
				<point>450,2.5</point>
			</points>
		</load_controller>
		<load_controller id="2" type="loadcurve">
			<interpolate>LINEAR</interpolate>
			<points>
				<point>0,0</point>
				<point>6,0.03</point>
				<point>450,0.03</point>
			</points>
		</load_controller>
	</LoadData>
	<Output>
		<plotfile type="febio">
			<var type="displacement"/>
			<var type="reaction forces"/>
			<var type="relative volume"/>
			<var type="stress"/>
			<var type="effective fluid pressure"/>
			<var type="fluid flux"/>
		</plotfile>
		<logfile>
			<element_data data="sz" elem_set="unnamed_set01"/>
		</logfile>
	</Output>
</febio_spec>
