<?xml version="1.0" encoding="ISO-8859-1"?>
<febio_spec version="3.0">
	<Module type="solid"/>
	<Control>
		<analysis>STATIC</analysis>
		<time_steps>10</time_steps>
		<step_size>0.1</step_size>
		<solver>
			<max_refs>15</max_refs>
			<max_ups>0</max_ups>
			<diverge_reform>1</diverge_reform>
			<reform_each_time_step>1</reform_each_time_step>
			<dtol>0.001</dtol>
			<etol>0.01</etol>
			<rtol>0</rtol>
			<lstol>0.9</lstol>
			<min_residual>1e-20</min_residual>
			<qnmethod>BFGS</qnmethod>
			<rhoi>-2</rhoi>
		</solver>
		<time_stepper>
			<dtmin>0.01</dtmin>
			<dtmax>0.1</dtmax>
			<max_retries>5</max_retries>
			<opt_iter>10</opt_iter>
		</time_stepper>
	</Control>
	<Globals>
		<Constants>
			<T>0</T>
			<R>0</R>
			<Fc>0</Fc>
		</Constants>
	</Globals>
	<Material>
		<material id="1" name="Orthotropic Conewise Linear Elastic Solid" type="orthotropic CLE">
			<density>1</density>
			<lp11>2</lp11>
			<lp22>1</lp22>
			<lp33>1</lp33>
			<lm11>0.2</lm11>
			<lm22>0.1</lm22>
			<lm33>0.1</lm33>
			<l12>0.1</l12>
			<l23>0.1</l23>
			<l31>0.1</l31>
			<mu1>0.2</mu1>
			<mu2>0.1</mu2>
			<mu3>0.1</mu3>
		</material>
	</Material>
	<Mesh>
		<Nodes name="Object01">
			<node id="1">-1.767767,-1.767767,0</node>
			<node id="2">0,-1.767767,0</node>
			<node id="3">1.767767,-1.767767,0</node>
			<node id="4">-1.767767,0,0</node>
			<node id="5">0,0,0</node>
			<node id="6">1.767767,0,0</node>
			<node id="7">-1.767767,1.767767,0</node>
			<node id="8">0,1.767767,0</node>
			<node id="9">1.767767,1.767767,0</node>
			<node id="10">-1.767767,-1.767767,1</node>
			<node id="11">0,-1.767767,1</node>
			<node id="12">1.767767,-1.767767,1</node>
			<node id="13">-1.767767,0,1</node>
			<node id="14">0,0,1</node>
			<node id="15">1.767767,0,1</node>
			<node id="16">-1.767767,1.767767,1</node>
			<node id="17">0,1.767767,1</node>
			<node id="18">1.767767,1.767767,1</node>
			<node id="19">-3.535534,-3.5355339,0</node>
			<node id="20">0,-5,0</node>
<!-- ... 398 like lines cut -->
		</Nodes>
		<Elements type="hex8" name="Part1">
			<elem id="1">1,35,209,55,10,40,212,56</elem>
			<elem id="2">35,36,210,209,40,39,213,212</elem>
			<elem id="3">36,37,211,210,39,38,214,213</elem>
			<elem id="4">37,2,41,211,38,11,46,214</elem>
			<elem id="5">55,209,206,54,56,212,215,57</elem>
			<elem id="6">209,210,207,206,212,213,216,215</elem>
			<elem id="7">210,211,208,207,213,214,217,216</elem>
			<elem id="8">211,41,42,208,214,46,45,217</elem>
			<elem id="9">54,206,203,53,57,215,218,58</elem>
			<elem id="10">206,207,204,203,215,216,219,218</elem>
			<elem id="11">207,208,205,204,216,217,220,219</elem>
			<elem id="12">208,42,43,205,217,45,44,220</elem>
			<elem id="13">53,203,49,4,58,218,50,13</elem>
			<elem id="14">203,204,48,49,218,219,51,50</elem>
			<elem id="15">204,205,47,48,219,220,52,51</elem>
			<elem id="16">205,43,5,47,220,44,14,52</elem>
			<elem id="17">2,59,227,41,11,64,230,46</elem>
			<elem id="18">59,60,228,227,64,63,231,230</elem>
			<elem id="19">60,61,229,228,63,62,232,231</elem>
			<elem id="20">61,3,65,229,62,12,70,232</elem>
<!-- ... 172 like lines cut -->
		</Elements>
		<NodeSet name="FixedDisplacement01">
			<n id="1"/>
			<n id="2"/>
			<n id="3"/>
			<n id="4"/>
			<n id="5"/>
			<n id="6"/>
			<n id="7"/>
			<n id="8"/>
			<n id="9"/>
			<n id="10"/>
			<n id="11"/>
			<n id="12"/>
			<n id="13"/>
			<n id="14"/>
			<n id="15"/>
			<n id="16"/>
			<n id="17"/>
			<n id="18"/>
			<n id="19"/>
			<n id="20"/>
<!-- ... 816 like lines cut -->
		</NodeSet>
		<NodeSet name="FixedDisplacement02">
			<n id="20"/>
			<n id="28"/>
		</NodeSet>
		<NodeSet name="FixedDisplacement03">
			<n id="22"/>
			<n id="30"/>
		</NodeSet>
		<Surface name="PressureLoad1">
			<quad4 id="1">22,149,154,30</quad4>
			<quad4 id="2">149,150,153,154</quad4>
			<quad4 id="3">150,151,152,153</quad4>
			<quad4 id="4">151,23,31,152</quad4>
			<quad4 id="5">23,161,166,31</quad4>
			<quad4 id="6">161,162,165,166</quad4>
			<quad4 id="7">162,163,164,165</quad4>
			<quad4 id="8">163,24,32,164</quad4>
			<quad4 id="9">24,173,178,32</quad4>
			<quad4 id="10">173,174,177,178</quad4>
			<quad4 id="11">174,175,176,177</quad4>
			<quad4 id="12">175,25,33,176</quad4>
			<quad4 id="13">25,185,190,33</quad4>
			<quad4 id="14">185,186,189,190</quad4>
			<quad4 id="15">186,187,188,189</quad4>
			<quad4 id="16">187,26,34,188</quad4>
			<quad4 id="17">19,113,118,27</quad4>
			<quad4 id="18">113,114,117,118</quad4>
			<quad4 id="19">114,115,116,117</quad4>
			<quad4 id="20">115,20,28,116</quad4>
<!-- ... 12 like lines cut -->
		</Surface>
		<ElementSet name="unnamed_set01">
			<e id="80"/>
		</ElementSet>
	</Mesh>
	<MeshDomains>
		<SolidDomain name="Part1" mat="Orthotropic Conewise Linear Elastic Solid"/>
	</MeshDomains>
	<MeshData>
		<ElementData var="mat_axis" elem_set="Part1">
			<e lid="1">
				<a>0.894427,0.447214,0</a>
				<d>-0.447214,0.894427,0</d>
			</e>
			<e lid="2">
				<a>0.894427,0.447214,0</a>
				<d>-0.447214,0.894427,0</d>
			</e>
			<e lid="3">
				<a>0.894427,0.447214,0</a>
				<d>-0.447214,0.894427,0</d>
			</e>
			<e lid="4">
				<a>0.894427,0.447214,0</a>
				<d>-0.447214,0.894427,0</d>
			</e>
			<e lid="5">
				<a>0.894427,0.447214,0</a>
				<d>-0.447214,0.894427,0</d>
			</e>
			<e lid="6">
				<a>0.894427,0.447214,0</a>
				<d>-0.447214,0.894427,0</d>
			</e>
			<e lid="7">
				<a>0.894427,0.447214,0</a>
				<d>-0.447214,0.894427,0</d>
			</e>
			<e lid="8">
				<a>0.894427,0.447214,0</a>
				<d>-0.447214,0.894427,0</d>
			</e>
			<e lid="9">
				<a>0.894427,0.447214,0</a>
				<d>-0.447214,0.894427,0</d>
			</e>
			<e lid="10">
				<a>0.894427,0.447214,0</a>
				<d>-0.447214,0.894427,0</d>
			</e>
			<e lid="11">
				<a>0.894427,0.447214,0</a>
				<d>-0.447214,0.894427,0</d>
			</e>
			<e lid="12">
				<a>0.894427,0.447214,0</a>
				<d>-0.447214,0.894427,0</d>
			</e>
			<e lid="13">
				<a>0.894427,0.447214,0</a>
				<d>-0.447214,0.894427,0</d>
			</e>
			<e lid="14">
				<a>0.894427,0.447214,0</a>
				<d>-0.447214,0.894427,0</d>
			</e>
			<e lid="15">
				<a>0.894427,0.447214,0</a>
				<d>-0.447214,0.894427,0</d>
			</e>
			<e lid="16">
				<a>0.894427,0.447214,0</a>
				<d>-0.447214,0.894427,0</d>
			</e>
			<e lid="17">
				<a>0.894427,0.447214,0</a>
				<d>-0.447214,0.894427,0</d>
			</e>
			<e lid="18">
				<a>0.894427,0.447214,0</a>
				<d>-0.447214,0.894427,0</d>
			</e>
			<e lid="19">
				<a>0.894427,0.447214,0</a>
				<d>-0.447214,0.894427,0</d>
			</e>
			<e lid="20">
				<a>0.894427,0.447214,0</a>
				<d>-0.447214,0.894427,0</d>
			</e>
			<e lid="21">
				<a>0.894427,0.447214,0</a>
				<d>-0.447214,0.894427,0</d>
			</e>
			<e lid="22">
				<a>0.894427,0.447214,0</a>
				<d>-0.447214,0.894427,0</d>
			</e>
			<e lid="23">
				<a>0.894427,0.447214,0</a>
				<d>-0.447214,0.894427,0</d>
			</e>
			<e lid="24">
				<a>0.894427,0.447214,0</a>
				<d>-0.447214,0.894427,0</d>
			</e>
			<e lid="25">
				<a>0.894427,0.447214,0</a>
				<d>-0.447214,0.894427,0</d>
			</e>
			<e lid="26">
				<a>0.894427,0.447214,0</a>
				<d>-0.447214,0.894427,0</d>
			</e>
			<e lid="27">
				<a>0.894427,0.447214,0</a>
				<d>-0.447214,0.894427,0</d>
			</e>
			<e lid="28">
				<a>0.894427,0.447214,0</a>
				<d>-0.447214,0.894427,0</d>
			</e>
			<e lid="29">
				<a>0.894427,0.447214,0</a>
				<d>-0.447214,0.894427,0</d>
			</e>
			<e lid="30">
				<a>0.894427,0.447214,0</a>
				<d>-0.447214,0.894427,0</d>
			</e>
			<e lid="31">
				<a>0.894427,0.447214,0</a>
				<d>-0.447214,0.894427,0</d>
			</e>
			<e lid="32">
				<a>0.894427,0.447214,0</a>
				<d>-0.447214,0.894427,0</d>
			</e>
			<e lid="33">
				<a>0.894427,0.447214,0</a>
				<d>-0.447214,0.894427,0</d>
			</e>
			<e lid="34">
				<a>0.894427,0.447214,0</a>
				<d>-0.447214,0.894427,0</d>
			</e>
			<e lid="35">
				<a>0.894427,0.447214,0</a>
				<d>-0.447214,0.894427,0</d>
			</e>
			<e lid="36">
				<a>0.894427,0.447214,0</a>
				<d>-0.447214,0.894427,0</d>
			</e>
			<e lid="37">
				<a>0.894427,0.447214,0</a>
				<d>-0.447214,0.894427,0</d>
			</e>
			<e lid="38">
				<a>0.894427,0.447214,0</a>
				<d>-0.447214,0.894427,0</d>
			</e>
			<e lid="39">
				<a>0.894427,0.447214,0</a>
				<d>-0.447214,0.894427,0</d>
			</e>
			<e lid="40">
				<a>0.894427,0.447214,0</a>
				<d>-0.447214,0.894427,0</d>
			</e>
			<e lid="41">
				<a>0.894427,0.447214,0</a>
				<d>-0.447214,0.894427,0</d>
			</e>
			<e lid="42">
				<a>0.894427,0.447214,0</a>
				<d>-0.447214,0.894427,0</d>
			</e>
			<e lid="43">
				<a>0.894427,0.447214,0</a>
				<d>-0.447214,0.894427,0</d>
			</e>
			<e lid="44">
				<a>0.894427,0.447214,0</a>
				<d>-0.447214,0.894427,0</d>
			</e>
			<e lid="45">
				<a>0.894427,0.447214,0</a>
				<d>-0.447214,0.894427,0</d>
			</e>
			<e lid="46">
				<a>0.894427,0.447214,0</a>
				<d>-0.447214,0.894427,0</d>
			</e>
			<e lid="47">
				<a>0.894427,0.447214,0</a>
				<d>-0.447214,0.894427,0</d>
			</e>
			<e lid="48">
				<a>0.894427,0.447214,0</a>
				<d>-0.447214,0.894427,0</d>
			</e>
			<e lid="49">
				<a>0.894427,0.447214,0</a>
				<d>-0.447214,0.894427,0</d>
			</e>
			<e lid="50">
				<a>0.894427,0.447214,0</a>
				<d>-0.447214,0.894427,0</d>
			</e>
			<e lid="51">
				<a>0.894427,0.447214,0</a>
				<d>-0.447214,0.894427,0</d>
			</e>
			<e lid="52">
				<a>0.894427,0.447214,0</a>
				<d>-0.447214,0.894427,0</d>
			</e>
			<e lid="53">
				<a>0.894427,0.447214,0</a>
				<d>-0.447214,0.894427,0</d>
			</e>
			<e lid="54">
				<a>0.894427,0.447214,0</a>
				<d>-0.447214,0.894427,0</d>
			</e>
			<e lid="55">
				<a>0.894427,0.447214,0</a>
				<d>-0.447214,0.894427,0</d>
			</e>
			<e lid="56">
				<a>0.894427,0.447214,0</a>
				<d>-0.447214,0.894427,0</d>
			</e>
			<e lid="57">
				<a>0.894427,0.447214,0</a>
				<d>-0.447214,0.894427,0</d>
			</e>
			<e lid="58">
				<a>0.894427,0.447214,0</a>
				<d>-0.447214,0.894427,0</d>
			</e>
			<e lid="59">
				<a>0.894427,0.447214,0</a>
				<d>-0.447214,0.894427,0</d>
			</e>
			<e lid="60">
				<a>0.894427,0.447214,0</a>
				<d>-0.447214,0.894427,0</d>
			</e>
			<e lid="61">
				<a>0.894427,0.447214,0</a>
				<d>-0.447214,0.894427,0</d>
			</e>
			<e lid="62">
				<a>0.894427,0.447214,0</a>
				<d>-0.447214,0.894427,0</d>
			</e>
			<e lid="63">
				<a>0.894427,0.447214,0</a>
				<d>-0.447214,0.894427,0</d>
			</e>
			<e lid="64">
				<a>0.894427,0.447214,0</a>
				<d>-0.447214,0.894427,0</d>
			</e>
			<e lid="65">
				<a>0.894427,0.447214,0</a>
				<d>-0.447214,0.894427,0</d>
			</e>
			<e lid="66">
				<a>0.894427,0.447214,0</a>
				<d>-0.447214,0.894427,0</d>
			</e>
			<e lid="67">
				<a>0.894427,0.447214,0</a>
				<d>-0.447214,0.894427,0</d>
			</e>
			<e lid="68">
				<a>0.894427,0.447214,0</a>
				<d>-0.447214,0.894427,0</d>
			</e>
			<e lid="69">
				<a>0.894427,0.447214,0</a>
				<d>-0.447214,0.894427,0</d>
			</e>
			<e lid="70">
				<a>0.894427,0.447214,0</a>
				<d>-0.447214,0.894427,0</d>
			</e>
			<e lid="71">
				<a>0.894427,0.447214,0</a>
				<d>-0.447214,0.894427,0</d>
			</e>
			<e lid="72">
				<a>0.894427,0.447214,0</a>
				<d>-0.447214,0.894427,0</d>
			</e>
			<e lid="73">
				<a>0.894427,0.447214,0</a>
				<d>-0.447214,0.894427,0</d>
			</e>
			<e lid="74">
				<a>0.894427,0.447214,0</a>
				<d>-0.447214,0.894427,0</d>
			</e>
			<e lid="75">
				<a>0.894427,0.447214,0</a>
				<d>-0.447214,0.894427,0</d>
			</e>
			<e lid="76">
				<a>0.894427,0.447214,0</a>
				<d>-0.447214,0.894427,0</d>
			</e>
			<e lid="77">
				<a>0.894427,0.447214,0</a>
				<d>-0.447214,0.894427,0</d>
			</e>
			<e lid="78">
				<a>0.894427,0.447214,0</a>
				<d>-0.447214,0.894427,0</d>
			</e>
			<e lid="79">
				<a>0.894427,0.447214,0</a>
				<d>-0.447214,0.894427,0</d>
			</e>
			<e lid="80">
				<a>0.894427,0.447214,0</a>
				<d>-0.447214,0.894427,0</d>
			</e>
			<e lid="81">
				<a>0.894427,0.447214,0</a>
				<d>-0.447214,0.894427,0</d>
			</e>
			<e lid="82">
				<a>0.894427,0.447214,0</a>
				<d>-0.447214,0.894427,0</d>
			</e>
			<e lid="83">
				<a>0.894427,0.447214,0</a>
				<d>-0.447214,0.894427,0</d>
			</e>
			<e lid="84">
				<a>0.894427,0.447214,0</a>
				<d>-0.447214,0.894427,0</d>
			</e>
			<e lid="85">
				<a>0.894427,0.447214,0</a>
				<d>-0.447214,0.894427,0</d>
			</e>
			<e lid="86">
				<a>0.894427,0.447214,0</a>
				<d>-0.447214,0.894427,0</d>
			</e>
			<e lid="87">
				<a>0.894427,0.447214,0</a>
				<d>-0.447214,0.894427,0</d>
			</e>
			<e lid="88">
				<a>0.894427,0.447214,0</a>
				<d>-0.447214,0.894427,0</d>
			</e>
			<e lid="89">
				<a>0.894427,0.447214,0</a>
				<d>-0.447214,0.894427,0</d>
			</e>
			<e lid="90">
				<a>0.894427,0.447214,0</a>
				<d>-0.447214,0.894427,0</d>
			</e>
			<e lid="91">
				<a>0.894427,0.447214,0</a>
				<d>-0.447214,0.894427,0</d>
			</e>
			<e lid="92">
				<a>0.894427,0.447214,0</a>
				<d>-0.447214,0.894427,0</d>
			</e>
			<e lid="93">
				<a>0.894427,0.447214,0</a>
				<d>-0.447214,0.894427,0</d>
			</e>
			<e lid="94">
				<a>0.894427,0.447214,0</a>
				<d>-0.447214,0.894427,0</d>
			</e>
			<e lid="95">
				<a>0.894427,0.447214,0</a>
				<d>-0.447214,0.894427,0</d>
			</e>
			<e lid="96">
				<a>0.894427,0.447214,0</a>
				<d>-0.447214,0.894427,0</d>
			</e>
			<e lid="97">
				<a>0.894427,0.447214,0</a>
				<d>-0.447214,0.894427,0</d>
			</e>
			<e lid="98">
				<a>0.894427,0.447214,0</a>
				<d>-0.447214,0.894427,0</d>
			</e>
			<e lid="99">
				<a>0.894427,0.447214,0</a>
				<d>-0.447214,0.894427,0</d>
			</e>
			<e lid="100">
				<a>0.894427,0.447214,0</a>
				<d>-0.447214,0.894427,0</d>
			</e>
			<e lid="101">
				<a>0.894427,0.447214,0</a>
				<d>-0.447214,0.894427,0</d>
			</e>
			<e lid="102">
				<a>0.894427,0.447214,0</a>
				<d>-0.447214,0.894427,0</d>
			</e>
			<e lid="103">
				<a>0.894427,0.447214,0</a>
				<d>-0.447214,0.894427,0</d>
			</e>
			<e lid="104">
				<a>0.894427,0.447214,0</a>
				<d>-0.447214,0.894427,0</d>
			</e>
			<e lid="105">
				<a>0.894427,0.447214,0</a>
				<d>-0.447214,0.894427,0</d>
			</e>
			<e lid="106">
				<a>0.894427,0.447214,0</a>
				<d>-0.447214,0.894427,0</d>
			</e>
			<e lid="107">
				<a>0.894427,0.447214,0</a>
				<d>-0.447214,0.894427,0</d>
			</e>
			<e lid="108">
				<a>0.894427,0.447214,0</a>
				<d>-0.447214,0.894427,0</d>
			</e>
			<e lid="109">
				<a>0.894427,0.447214,0</a>
				<d>-0.447214,0.894427,0</d>
			</e>
			<e lid="110">
				<a>0.894427,0.447214,0</a>
				<d>-0.447214,0.894427,0</d>
			</e>
			<e lid="111">
				<a>0.894427,0.447214,0</a>
				<d>-0.447214,0.894427,0</d>
			</e>
			<e lid="112">
				<a>0.894427,0.447214,0</a>
				<d>-0.447214,0.894427,0</d>
			</e>
			<e lid="113">
				<a>0.894427,0.447214,0</a>
				<d>-0.447214,0.894427,0</d>
			</e>
			<e lid="114">
				<a>0.894427,0.447214,0</a>
				<d>-0.447214,0.894427,0</d>
			</e>
			<e lid="115">
				<a>0.894427,0.447214,0</a>
				<d>-0.447214,0.894427,0</d>
			</e>
			<e lid="116">
				<a>0.894427,0.447214,0</a>
				<d>-0.447214,0.894427,0</d>
			</e>
			<e lid="117">
				<a>0.894427,0.447214,0</a>
				<d>-0.447214,0.894427,0</d>
			</e>
			<e lid="118">
				<a>0.894427,0.447214,0</a>
				<d>-0.447214,0.894427,0</d>
			</e>
			<e lid="119">
				<a>0.894427,0.447214,0</a>
				<d>-0.447214,0.894427,0</d>
			</e>
			<e lid="120">
				<a>0.894427,0.447214,0</a>
				<d>-0.447214,0.894427,0</d>
			</e>
			<e lid="121">
				<a>0.894427,0.447214,0</a>
				<d>-0.447214,0.894427,0</d>
			</e>
			<e lid="122">
				<a>0.894427,0.447214,0</a>
				<d>-0.447214,0.894427,0</d>
			</e>
			<e lid="123">
				<a>0.894427,0.447214,0</a>
				<d>-0.447214,0.894427,0</d>
			</e>
			<e lid="124">
				<a>0.894427,0.447214,0</a>
				<d>-0.447214,0.894427,0</d>
			</e>
			<e lid="125">
				<a>0.894427,0.447214,0</a>
				<d>-0.447214,0.894427,0</d>
			</e>
			<e lid="126">
				<a>0.894427,0.447214,0</a>
				<d>-0.447214,0.894427,0</d>
			</e>
			<e lid="127">
				<a>0.894427,0.447214,0</a>
				<d>-0.447214,0.894427,0</d>
			</e>
			<e lid="128">
				<a>0.894427,0.447214,0</a>
				<d>-0.447214,0.894427,0</d>
			</e>
			<e lid="129">
				<a>0.894427,0.447214,0</a>
				<d>-0.447214,0.894427,0</d>
			</e>
			<e lid="130">
				<a>0.894427,0.447214,0</a>
				<d>-0.447214,0.894427,0</d>
			</e>
			<e lid="131">
				<a>0.894427,0.447214,0</a>
				<d>-0.447214,0.894427,0</d>
			</e>
			<e lid="132">
				<a>0.894427,0.447214,0</a>
				<d>-0.447214,0.894427,0</d>
			</e>
			<e lid="133">
				<a>0.894427,0.447214,0</a>
				<d>-0.447214,0.894427,0</d>
			</e>
			<e lid="134">
				<a>0.894427,0.447214,0</a>
				<d>-0.447214,0.894427,0</d>
			</e>
			<e lid="135">
				<a>0.894427,0.447214,0</a>
				<d>-0.447214,0.894427,0</d>
			</e>
			<e lid="136">
				<a>0.894427,0.447214,0</a>
				<d>-0.447214,0.894427,0</d>
			</e>
			<e lid="137">
				<a>0.894427,0.447214,0</a>
				<d>-0.447214,0.894427,0</d>
			</e>
			<e lid="138">
				<a>0.894427,0.447214,0</a>
				<d>-0.447214,0.894427,0</d>
			</e>
			<e lid="139">
				<a>0.894427,0.447214,0</a>
				<d>-0.447214,0.894427,0</d>
			</e>
			<e lid="140">
				<a>0.894427,0.447214,0</a>
				<d>-0.447214,0.894427,0</d>
			</e>
			<e lid="141">
				<a>0.894427,0.447214,0</a>
				<d>-0.447214,0.894427,0</d>
			</e>
			<e lid="142">
				<a>0.894427,0.447214,0</a>
				<d>-0.447214,0.894427,0</d>
			</e>
			<e lid="143">
				<a>0.894427,0.447214,0</a>
				<d>-0.447214,0.894427,0</d>
			</e>
			<e lid="144">
				<a>0.894427,0.447214,0</a>
				<d>-0.447214,0.894427,0</d>
			</e>
			<e lid="145">
				<a>0.894427,0.447214,0</a>
				<d>-0.447214,0.894427,0</d>
			</e>
			<e lid="146">
				<a>0.894427,0.447214,0</a>
				<d>-0.447214,0.894427,0</d>
			</e>
			<e lid="147">
				<a>0.894427,0.447214,0</a>
				<d>-0.447214,0.894427,0</d>
			</e>
			<e lid="148">
				<a>0.894427,0.447214,0</a>
				<d>-0.447214,0.894427,0</d>
			</e>
			<e lid="149">
				<a>0.894427,0.447214,0</a>
				<d>-0.447214,0.894427,0</d>
			</e>
			<e lid="150">
				<a>0.894427,0.447214,0</a>
				<d>-0.447214,0.894427,0</d>
			</e>
			<e lid="151">
				<a>0.894427,0.447214,0</a>
				<d>-0.447214,0.894427,0</d>
			</e>
			<e lid="152">
				<a>0.894427,0.447214,0</a>
				<d>-0.447214,0.894427,0</d>
			</e>
			<e lid="153">
				<a>0.894427,0.447214,0</a>
				<d>-0.447214,0.894427,0</d>
			</e>
			<e lid="154">
				<a>0.894427,0.447214,0</a>
				<d>-0.447214,0.894427,0</d>
			</e>
			<e lid="155">
				<a>0.894427,0.447214,0</a>
				<d>-0.447214,0.894427,0</d>
			</e>
			<e lid="156">
				<a>0.894427,0.447214,0</a>
				<d>-0.447214,0.894427,0</d>
			</e>
			<e lid="157">
				<a>0.894427,0.447214,0</a>
				<d>-0.447214,0.894427,0</d>
			</e>
			<e lid="158">
				<a>0.894427,0.447214,0</a>
				<d>-0.447214,0.894427,0</d>
			</e>
			<e lid="159">
				<a>0.894427,0.447214,0</a>
				<d>-0.447214,0.894427,0</d>
			</e>
			<e lid="160">
				<a>0.894427,0.447214,0</a>
				<d>-0.447214,0.894427,0</d>
			</e>
			<e lid="161">
				<a>0.894427,0.447214,0</a>
				<d>-0.447214,0.894427,0</d>
			</e>
			<e lid="162">
				<a>0.894427,0.447214,0</a>
				<d>-0.447214,0.894427,0</d>
			</e>
			<e lid="163">
				<a>0.894427,0.447214,0</a>
				<d>-0.447214,0.894427,0</d>
			</e>
			<e lid="164">
				<a>0.894427,0.447214,0</a>
				<d>-0.447214,0.894427,0</d>
			</e>
			<e lid="165">
				<a>0.894427,0.447214,0</a>
				<d>-0.447214,0.894427,0</d>
			</e>
			<e lid="166">
				<a>0.894427,0.447214,0</a>
				<d>-0.447214,0.894427,0</d>
			</e>
			<e lid="167">
				<a>0.894427,0.447214,0</a>
				<d>-0.447214,0.894427,0</d>
			</e>
			<e lid="168">
				<a>0.894427,0.447214,0</a>
				<d>-0.447214,0.894427,0</d>
			</e>
			<e lid="169">
				<a>0.894427,0.447214,0</a>
				<d>-0.447214,0.894427,0</d>
			</e>
			<e lid="170">
				<a>0.894427,0.447214,0</a>
				<d>-0.447214,0.894427,0</d>
			</e>
			<e lid="171">
				<a>0.894427,0.447214,0</a>
				<d>-0.447214,0.894427,0</d>
			</e>
			<e lid="172">
				<a>0.894427,0.447214,0</a>
				<d>-0.447214,0.894427,0</d>
			</e>
			<e lid="173">
				<a>0.894427,0.447214,0</a>
				<d>-0.447214,0.894427,0</d>
			</e>
			<e lid="174">
				<a>0.894427,0.447214,0</a>
				<d>-0.447214,0.894427,0</d>
			</e>
			<e lid="175">
				<a>0.894427,0.447214,0</a>
				<d>-0.447214,0.894427,0</d>
			</e>
			<e lid="176">
				<a>0.894427,0.447214,0</a>
				<d>-0.447214,0.894427,0</d>
			</e>
			<e lid="177">
				<a>0.894427,0.447214,0</a>
				<d>-0.447214,0.894427,0</d>
			</e>
			<e lid="178">
				<a>0.894427,0.447214,0</a>
				<d>-0.447214,0.894427,0</d>
			</e>
			<e lid="179">
				<a>0.894427,0.447214,0</a>
				<d>-0.447214,0.894427,0</d>
			</e>
			<e lid="180">
				<a>0.894427,0.447214,0</a>
				<d>-0.447214,0.894427,0</d>
			</e>
			<e lid="181">
				<a>0.894427,0.447214,0</a>
				<d>-0.447214,0.894427,0</d>
			</e>
			<e lid="182">
				<a>0.894427,0.447214,0</a>
				<d>-0.447214,0.894427,0</d>
			</e>
			<e lid="183">
				<a>0.894427,0.447214,0</a>
				<d>-0.447214,0.894427,0</d>
			</e>
			<e lid="184">
				<a>0.894427,0.447214,0</a>
				<d>-0.447214,0.894427,0</d>
			</e>
			<e lid="185">
				<a>0.894427,0.447214,0</a>
				<d>-0.447214,0.894427,0</d>
			</e>
			<e lid="186">
				<a>0.894427,0.447214,0</a>
				<d>-0.447214,0.894427,0</d>
			</e>
			<e lid="187">
				<a>0.894427,0.447214,0</a>
				<d>-0.447214,0.894427,0</d>
			</e>
			<e lid="188">
				<a>0.894427,0.447214,0</a>
				<d>-0.447214,0.894427,0</d>
			</e>
			<e lid="189">
				<a>0.894427,0.447214,0</a>
				<d>-0.447214,0.894427,0</d>
			</e>
			<e lid="190">
				<a>0.894427,0.447214,0</a>
				<d>-0.447214,0.894427,0</d>
			</e>
			<e lid="191">
				<a>0.894427,0.447214,0</a>
				<d>-0.447214,0.894427,0</d>
			</e>
			<e lid="192">
				<a>0.894427,0.447214,0</a>
				<d>-0.447214,0.894427,0</d>
			</e>
		</ElementData>
	</MeshData>
	<Boundary>
		<bc name="FixedDisplacement01" type="fix" node_set="FixedDisplacement01">
			<dofs>z</dofs>
		</bc>
		<bc name="FixedDisplacement02" type="fix" node_set="FixedDisplacement02">
			<dofs>x,y</dofs>
		</bc>
		<bc name="FixedDisplacement03" type="fix" node_set="FixedDisplacement03">
			<dofs>y</dofs>
		</bc>
	</Boundary>
	<Loads>
		<surface_load name="PressureLoad1" type="pressure" surface="PressureLoad1">
			<pressure lc="1">-1</pressure>
			<linear>0</linear>
			<symmetric_stiffness>1</symmetric_stiffness>
		</surface_load>
	</Loads>
	<LoadData>
		<load_controller id="1" type="loadcurve">
			<interpolate>SMOOTH</interpolate>
			<points>
				<point>0,0</point>
				<point>1,1</point>
			</points>
		</load_controller>
	</LoadData>
	<Output>
		<plotfile type="febio">
			<var type="displacement"/>
			<var type="relative volume"/>
			<var type="stress"/>
		</plotfile>
		<logfile>
			<element_data data="sz" elem_set="unnamed_set01"/>
		</logfile>
	</Output>
</febio_spec>
