<?xml version="1.0" encoding="ISO-8859-1"?>
<!--
Problem Description:
	Sinusoidal deformational loading of a cube from tension to
	compression. The material is reactive viscoelastic, with the
	strong bonds (elastic response) given by a Holmes-Mow
	material, and the weak bonds (viscous response) given by a
	neo-Hookean material.  The bond relaxation is strain-dependent
	power law, with type I bond kinetics.
Main Features:
	Reactive viscoelastic material.
Secondary Features:
	
Materials:
	reactive viscoelastic
	Holmes-Mow
	neo-Hookean
	relaxation-power
Degrees of Freedom: 12
Results:
	Steps Completed: 500
	Equilibrium Iterations: 1278
	Right Hand Evaluations: 1778
	Siffness Reformations: 1278
	Other:
Comments:
	
-->
<febio_spec version="3.0">
	<Module type="solid"/>
	<Control>
		<analysis>STATIC</analysis>
		<time_steps>500</time_steps>
		<step_size>0.02</step_size>
		<solver>
			<max_refs>15</max_refs>
			<max_ups>0</max_ups>
			<diverge_reform>1</diverge_reform>
			<reform_each_time_step>1</reform_each_time_step>
			<dtol>0.001</dtol>
			<etol>0.01</etol>
			<rtol>0</rtol>
			<lstol>0.9</lstol>
			<min_residual>1e-20</min_residual>
			<qnmethod>BFGS</qnmethod>
			<rhoi>-2</rhoi>
		</solver>
		<time_stepper>
			<dtmin>0.001</dtmin>
			<dtmax>0.02</dtmax>
			<max_retries>5</max_retries>
			<opt_iter>10</opt_iter>
		</time_stepper>
	</Control>
	<Globals>
		<Constants>
			<T>0</T>
			<R>0</R>
			<Fc>0</Fc>
		</Constants>
	</Globals>
	<Material>
		<material id="1" name="Viscoelastic solid" type="reactive viscoelastic">
			<kinetics>1</kinetics>
			<trigger>0</trigger>
			<elastic type="Holmes-Mow">
				<E>1</E>
				<v>0.3</v>
				<beta>2</beta>
			</elastic>
			<bond type="neo-Hookean">
				<E>1</E>
				<v>0.3</v>
			</bond>
			<relaxation type="relaxation-power">
				<tau>0.2</tau>
				<beta>1.5</beta>
			</relaxation>
		</material>
	</Material>
	<Mesh>
		<Nodes name="Object01">
			<node id="1">-0.5,-0.5,0</node>
			<node id="2">-0.5,-0.5,1</node>
			<node id="3">-0.5,0.5,0</node>
			<node id="4">-0.5,0.5,1</node>
			<node id="5">0.5,-0.5,0</node>
			<node id="6">0.5,-0.5,1</node>
			<node id="7">0.5,0.5,0</node>
			<node id="8">0.5,0.5,1</node>
		</Nodes>
		<Elements type="hex8" name="Part1">
			<elem id="1">1,5,7,3,2,6,8,4</elem>
		</Elements>
		<NodeSet name="FixedDisplacement01">
			<n id="1"/>
			<n id="2"/>
			<n id="3"/>
			<n id="4"/>
		</NodeSet>
		<NodeSet name="FixedDisplacement02">
			<n id="1"/>
			<n id="2"/>
			<n id="5"/>
			<n id="6"/>
		</NodeSet>
		<NodeSet name="FixedDisplacement03">
			<n id="1"/>
			<n id="3"/>
			<n id="5"/>
			<n id="7"/>
		</NodeSet>
		<NodeSet name="PrescribedBC148">
			<n id="2"/>
			<n id="4"/>
			<n id="6"/>
			<n id="8"/>
		</NodeSet>
		<ElementSet name="unnamed_set01">
			<e id="1"/>
		</ElementSet>
	</Mesh>
	<MeshDomains>
		<SolidDomain name="Part1" mat="Viscoelastic solid"/>
	</MeshDomains>
	<Boundary>
		<bc name="FixedDisplacement01" type="fix" node_set="FixedDisplacement01">
			<dofs>x</dofs>
		</bc>
		<bc name="FixedDisplacement02" type="fix" node_set="FixedDisplacement02">
			<dofs>y</dofs>
		</bc>
		<bc name="FixedDisplacement03" type="fix" node_set="FixedDisplacement03">
			<dofs>z</dofs>
		</bc>
		<bc name="PrescribedBC148" type="prescribe" node_set="PrescribedBC148">
			<dof>z</dof>
			<scale lc="1">0.25</scale>
			<relative>0</relative>
		</bc>
	</Boundary>
	<LoadData>
		<load_controller id="1" type="loadcurve">
			<interpolate>SMOOTH</interpolate>
			<extend>REPEAT</extend>
			<points>
				<point>0,0</point>
				<point>0.111111111111,0.642787609075</point>
				<point>0.222222222222,0.984807752735</point>
				<point>0.333333333333,0.866025404981</point>
				<point>0.444444444444,0.342020146324</point>
				<point>0.555555555556,-0.342020139578</point>
				<point>0.666666666667,-0.866025401391</point>
				<point>0.777777777778,-0.984807753982</point>
				<point>0.888888888889,-0.642787614575</point>
				<point>1,-7.17958605968e-09</point>
			</points>
		</load_controller>
	</LoadData>
	<Output>
		<plotfile type="febio">
			<var type="displacement"/>
			<var type="stress"/>
		</plotfile>
		<logfile>
			<element_data data="sz" elem_set="unnamed_set01"/>
		</logfile>
	</Output>
</febio_spec>
