<?xml version="1.0" encoding="ISO-8859-1"?>
<!--
Problem Description:
	Holzapfel-Gasser-Ogden material model used to analyze a circumferential
	iliac adventitial strip subjected to prescribed loading from 0 to 2 N.
Main Features:
	Holzapfel-Gasser-Ogden material
Secondary Features:
	Lagrange augmentation for enforcing incompressibility
Materials:
	Holzapfel-Gasser-Ogden
	rigid
Degrees of Freedom: 12286
Units:	N-mm-s
Results:
	Steps Completed: 49
	Equilibrium Iterations: 261
	Right Hand Evaluations: 366
	Siffness Reformations: 261
	Other:
Comments:
	Gasser et al. J.R. Soc. Interface (20006) 3, 15-35
	Figs. 11 and 12
-->
<febio_spec version="3.0">
	<Module type="solid"/>
	<Control>
		<analysis>STATIC</analysis>
		<time_steps>5000</time_steps>
		<step_size>0.0002</step_size>
		<solver>
			<max_refs>40</max_refs>
			<max_ups>0</max_ups>
			<diverge_reform>1</diverge_reform>
			<reform_each_time_step>1</reform_each_time_step>
			<dtol>0.001</dtol>
			<etol>0.01</etol>
			<rtol>0</rtol>
			<lstol>0.9</lstol>
			<min_residual>1e-20</min_residual>
			<qnmethod>BFGS</qnmethod>
			<rhoi>0</rhoi>
		</solver>
		<time_stepper>
			<dtmin>0.0002</dtmin>
			<dtmax lc="1"></dtmax>
			<max_retries>5</max_retries>
			<opt_iter>10</opt_iter>
		</time_stepper>
	</Control>
	<Globals>
		<Constants>
			<T>0</T>
			<R>0</R>
			<Fc>0</Fc>
		</Constants>
	</Globals>
	<Material>
		<material id="1" name="Material 1" type="Holzapfel-Gasser-Ogden">
			<c>7.64e-3</c>
			<k1>996.6e-3</k1>
			<k2>524.6</k2>
			<gamma>49.98</gamma>
			<kappa>0.226</kappa>
			<k>100</k>
			<mat_axis type="vector">
			  <a>1,0,0</a>
			  <d>0,1,0</d>
			</mat_axis>
		</material>
		<material id="2" name="Left RB" type="rigid body">
			<density>1</density>
			<center_of_mass>-5,0,0.25</center_of_mass>
		</material>
		<material id="3" name="Right RB" type="rigid body">
			<density>1</density>
			<center_of_mass>5,0,0.25</center_of_mass>
		</material>
	</Material>
	<Mesh>
		<Nodes name="Object01">
			<node id="1">-5,-1.5,0</node>
			<node id="2">-5,-1.5,0.125</node>
			<node id="3">-5,-1.5,0.25</node>
			<node id="4">-5,-1.5,0.375</node>
			<node id="5">-5,-1.5,0.5</node>
			<node id="6">-5,-1.35,0</node>
			<node id="7">-5,-1.35,0.125</node>
			<node id="8">-5,-1.35,0.25</node>
			<node id="9">-5,-1.35,0.375</node>
			<node id="10">-5,-1.35,0.5</node>
			<node id="11">-5,-1.2,0</node>
			<node id="12">-5,-1.2,0.125</node>
			<node id="13">-5,-1.2,0.25</node>
			<node id="14">-5,-1.2,0.375</node>
			<node id="15">-5,-1.2,0.5</node>
			<node id="16">-5,-1.05,0</node>
			<node id="17">-5,-1.05,0.125</node>
			<node id="18">-5,-1.05,0.25</node>
			<node id="19">-5,-1.05,0.375</node>
			<node id="20">-5,-1.05,0.5</node>
<!-- ... 4285 like lines cut -->
		</Nodes>
		<Elements type="hex8" name="Part1">
			<elem id="1">1,106,111,6,2,107,112,7</elem>
			<elem id="2">2,107,112,7,3,108,113,8</elem>
			<elem id="3">3,108,113,8,4,109,114,9</elem>
			<elem id="4">4,109,114,9,5,110,115,10</elem>
			<elem id="5">6,111,116,11,7,112,117,12</elem>
			<elem id="6">7,112,117,12,8,113,118,13</elem>
			<elem id="7">8,113,118,13,9,114,119,14</elem>
			<elem id="8">9,114,119,14,10,115,120,15</elem>
			<elem id="9">11,116,121,16,12,117,122,17</elem>
			<elem id="10">12,117,122,17,13,118,123,18</elem>
			<elem id="11">13,118,123,18,14,119,124,19</elem>
			<elem id="12">14,119,124,19,15,120,125,20</elem>
			<elem id="13">16,121,126,21,17,122,127,22</elem>
			<elem id="14">17,122,127,22,18,123,128,23</elem>
			<elem id="15">18,123,128,23,19,124,129,24</elem>
			<elem id="16">19,124,129,24,20,125,130,25</elem>
			<elem id="17">21,126,131,26,22,127,132,27</elem>
			<elem id="18">22,127,132,27,23,128,133,28</elem>
			<elem id="19">23,128,133,28,24,129,134,29</elem>
			<elem id="20">24,129,134,29,25,130,135,30</elem>
<!-- ... 3180 like lines cut -->
		</Elements>
		<NodeSet name="RigidInterface02">
			<n id="1"/>
			<n id="2"/>
			<n id="3"/>
			<n id="4"/>
			<n id="5"/>
			<n id="6"/>
			<n id="7"/>
			<n id="8"/>
			<n id="9"/>
			<n id="10"/>
			<n id="11"/>
			<n id="12"/>
			<n id="13"/>
			<n id="14"/>
			<n id="15"/>
			<n id="16"/>
			<n id="17"/>
			<n id="18"/>
			<n id="19"/>
			<n id="20"/>
<!-- ... 85 like lines cut -->
		</NodeSet>
		<NodeSet name="RigidInterface03">
			<n id="4201"/>
			<n id="4202"/>
			<n id="4203"/>
			<n id="4204"/>
			<n id="4205"/>
			<n id="4206"/>
			<n id="4207"/>
			<n id="4208"/>
			<n id="4209"/>
			<n id="4210"/>
			<n id="4211"/>
			<n id="4212"/>
			<n id="4213"/>
			<n id="4214"/>
			<n id="4215"/>
			<n id="4216"/>
			<n id="4217"/>
			<n id="4218"/>
			<n id="4219"/>
			<n id="4220"/>
<!-- ... 85 like lines cut -->
		</NodeSet>
	</Mesh>
	<MeshDomains>
		<SolidDomain name="Part1" mat="Material 1">
		  <laugon>1</laugon>
		  <atol>0.01</atol>
		  <minaug>0</minaug>
		  <maxaug>10</maxaug>
		</SolidDomain>
	</MeshDomains>
	<Boundary>
		<bc name="RigidInterface02" type="rigid" node_set="RigidInterface02">
			<rb>2</rb>
		</bc>
		<bc name="RigidInterface03" type="rigid" node_set="RigidInterface03">
			<rb>3</rb>
		</bc>
	</Boundary>
	<Rigid>
		<rigid_constraint name="RigidFixed01" type="fix">
			<rb>2</rb>
			<dofs>Rx,Ry,Rz,Ru,Rv,Rw</dofs>
		</rigid_constraint>
		<rigid_constraint name="RigidFixed02" type="fix">
			<rb>3</rb>
			<dofs>Ry,Rz,Ru,Rv,Rw</dofs>
		</rigid_constraint>
		<rigid_constraint name="RigidForce01" type="force">
			<rb>3</rb>
			<dof>Rx</dof>
			<value lc="2">1</value>
			<load_type>0</load_type>
		</rigid_constraint>
	</Rigid>
	<Contact>
	</Contact>
	<LoadData>
		<load_controller id="1" type="loadcurve">
			<interpolate>STEP</interpolate>
			<points>
				<point>0,0</point>
				<point>0.5,0.025</point>
			</points>
		</load_controller>
		<load_controller id="2" type="loadcurve">
			<interpolate>SMOOTH</interpolate>
			<points>
				<point>0,0</point>
				<point>0.5,1</point>
				<point>1,2</point>
			</points>
		</load_controller>
	</LoadData>
	<Output>
		<plotfile type="febio">
			<var type="displacement"/>
			<var type="reaction forces"/>
			<var type="relative volume"/>
			<var type="rigid force"/>
			<var type="stress"/>
		</plotfile>
		<logfile>
			<rigid_body_data data="x;Fx"/>
		</logfile>
	</Output>
</febio_spec>
