<?xml version="1.0" encoding="ISO-8859-1"?>
<febio_spec version="2.5">
	<Module type="solid"/>
	<Control>
		<time_steps>20</time_steps>
		<step_size>0.05</step_size>
		<max_refs>15</max_refs>
		<max_ups>10</max_ups>
		<diverge_reform>1</diverge_reform>
		<reform_each_time_step>1</reform_each_time_step>
		<dtol>0.001</dtol>
		<etol>0.01</etol>
		<rtol>0</rtol>
		<lstol>0.9</lstol>
		<min_residual>1e-020</min_residual>
		<qnmethod>0</qnmethod>
		<time_stepper>
			<dtmin>0.01</dtmin>
			<dtmax>0.05</dtmax>
			<max_retries>5</max_retries>
			<opt_iter>100</opt_iter>
		</time_stepper>
		<analysis type="static"/>
	</Control>
	<Globals>
		<Constants>
			<T>0</T>
			<R>0</R>
			<Fc>0</Fc>
		</Constants>
	</Globals>
	<Material>
		<material id="1" name="Material1" type="Shenoy">
			<density>1</density>
			<mu>0.7692</mu>
			<k>1.667</k>
			<Ef>134.6</Ef>
			<lam_c>1.02</lam_c>
			<lam_t>0.255</lam_t>
			<n>5</n>
			<m>30</m>
		</material>
	</Material>
	<Geometry>
		<Nodes name="Object01">
			<node id="1"> 1.0000000e+001, 1.0000000e+001, 1.0000000e+001</node>
			<node id="2"> 5.7735027e-001, 5.7735027e-001, 5.7735027e-001</node>
			<node id="3"> 1.0000000e+001, 1.0000000e+001, 0.0000000e+000</node>
			<node id="4"> 1.0000000e+001, 1.0000000e+001, 2.0000000e+000</node>
			<node id="5"> 1.0000000e+001, 1.0000000e+001, 4.0000000e+000</node>
			<node id="6"> 1.0000000e+001, 1.0000000e+001, 6.0000000e+000</node>
			<node id="7"> 1.0000000e+001, 1.0000000e+001, 8.0000000e+000</node>
			<node id="8"> 1.0000000e+001, 8.0000000e+000, 1.0000000e+001</node>
			<node id="9"> 1.0000000e+001, 6.0000000e+000, 1.0000000e+001</node>
			<node id="10"> 1.0000000e+001, 4.0000000e+000, 1.0000000e+001</node>
			<node id="11"> 1.0000000e+001, 2.0000000e+000, 1.0000000e+001</node>
			<node id="12"> 1.0000000e+001, 0.0000000e+000, 1.0000000e+001</node>
			<node id="13"> 7.0710678e-001, 7.0710678e-001, 0.0000000e+000</node>
			<node id="14"> 7.0014004e-001, 7.0014004e-001, 1.4002801e-001</node>
			<node id="15"> 6.8041382e-001, 6.8041382e-001, 2.7216553e-001</node>
			<node id="16"> 6.5094455e-001, 6.5094455e-001, 3.9056673e-001</node>
			<node id="17"> 6.1545745e-001, 6.1545745e-001, 4.9236596e-001</node>
			<node id="18"> 1.5196152e+000, 1.5196152e+000, 1.5196152e+000</node>
			<node id="19"> 2.4618802e+000, 2.4618802e+000, 2.4618802e+000</node>
			<node id="20"> 3.4041452e+000, 3.4041452e+000, 3.4041452e+000</node>
<!-- ... 981 like lines cut -->
		</Nodes>
		<Elements type="hex8" mat="1" name="Part1">
			<elem id="1">    42,    43,   328,   327,    47,    48,   373,   372</elem>
			<elem id="2">    43,    44,   329,   328,    48,    49,   374,   373</elem>
			<elem id="3">    44,    45,   330,   329,    49,    50,   375,   374</elem>
			<elem id="4">    45,    46,   331,   330,    50,    51,   376,   375</elem>
			<elem id="5">    46,     3,    67,   331,    51,     4,    76,   376</elem>
			<elem id="6">   327,   328,   333,   332,   372,   373,   378,   377</elem>
			<elem id="7">   328,   329,   334,   333,   373,   374,   379,   378</elem>
			<elem id="8">   329,   330,   335,   334,   374,   375,   380,   379</elem>
			<elem id="9">   330,   331,   336,   335,   375,   376,   381,   380</elem>
			<elem id="10">   331,    67,    68,   336,   376,    76,    77,   381</elem>
			<elem id="11">   332,   333,   338,   337,   377,   378,   383,   382</elem>
			<elem id="12">   333,   334,   339,   338,   378,   379,   384,   383</elem>
			<elem id="13">   334,   335,   340,   339,   379,   380,   385,   384</elem>
			<elem id="14">   335,   336,   341,   340,   380,   381,   386,   385</elem>
			<elem id="15">   336,    68,    69,   341,   381,    77,    78,   386</elem>
			<elem id="16">   337,   338,   343,   342,   382,   383,   388,   387</elem>
			<elem id="17">   338,   339,   344,   343,   383,   384,   389,   388</elem>
			<elem id="18">   339,   340,   345,   344,   384,   385,   390,   389</elem>
			<elem id="19">   340,   341,   346,   345,   385,   386,   391,   390</elem>
			<elem id="20">   341,    69,    70,   346,   386,    78,    79,   391</elem>
<!-- ... 730 like lines cut -->
		</Elements>
		<NodeSet name="FixedDisplacement1">
			<node id="32"/>
			<node id="41"/>
			<node id="186"/>
			<node id="191"/>
			<node id="196"/>
			<node id="201"/>
			<node id="206"/>
			<node id="207"/>
			<node id="212"/>
			<node id="217"/>
			<node id="222"/>
			<node id="227"/>
			<node id="236"/>
			<node id="241"/>
			<node id="246"/>
			<node id="251"/>
			<node id="256"/>
			<node id="261"/>
			<node id="266"/>
			<node id="271"/>
<!-- ... 101 like lines cut -->
		</NodeSet>
		<NodeSet name="FixedDisplacement2">
			<node id="12"/>
			<node id="27"/>
			<node id="42"/>
			<node id="47"/>
			<node id="52"/>
			<node id="57"/>
			<node id="62"/>
			<node id="116"/>
			<node id="121"/>
			<node id="126"/>
			<node id="131"/>
			<node id="136"/>
			<node id="137"/>
			<node id="142"/>
			<node id="147"/>
			<node id="152"/>
			<node id="157"/>
			<node id="162"/>
			<node id="167"/>
			<node id="172"/>
<!-- ... 101 like lines cut -->
		</NodeSet>
		<NodeSet name="FixedDisplacement3">
			<node id="3"/>
			<node id="13"/>
			<node id="42"/>
			<node id="43"/>
			<node id="44"/>
			<node id="45"/>
			<node id="46"/>
			<node id="67"/>
			<node id="68"/>
			<node id="69"/>
			<node id="70"/>
			<node id="71"/>
			<node id="72"/>
			<node id="73"/>
			<node id="74"/>
			<node id="75"/>
			<node id="112"/>
			<node id="113"/>
			<node id="114"/>
			<node id="115"/>
<!-- ... 101 like lines cut -->
		</NodeSet>
		<NodeSet name="FixedDisplacement4">
			<node id="1"/>
			<node id="3"/>
			<node id="4"/>
			<node id="5"/>
			<node id="6"/>
			<node id="7"/>
			<node id="8"/>
			<node id="9"/>
			<node id="10"/>
			<node id="11"/>
			<node id="12"/>
			<node id="32"/>
			<node id="33"/>
			<node id="34"/>
			<node id="35"/>
			<node id="36"/>
			<node id="42"/>
			<node id="43"/>
			<node id="44"/>
			<node id="45"/>
<!-- ... 253 like lines cut -->
		</NodeSet>
		<Surface name="PressureLoad1">
			<quad4 id="1">   115,   116,   121,   120</quad4>
			<quad4 id="2">   114,   115,   120,   119</quad4>
			<quad4 id="3">   113,   114,   119,   118</quad4>
			<quad4 id="4">   112,   113,   118,   117</quad4>
			<quad4 id="5">    13,   112,   117,    14</quad4>
			<quad4 id="6">   120,   121,   126,   125</quad4>
			<quad4 id="7">   119,   120,   125,   124</quad4>
			<quad4 id="8">   118,   119,   124,   123</quad4>
			<quad4 id="9">   117,   118,   123,   122</quad4>
			<quad4 id="10">    14,   117,   122,    15</quad4>
			<quad4 id="11">   125,   126,   131,   130</quad4>
			<quad4 id="12">   124,   125,   130,   129</quad4>
			<quad4 id="13">   123,   124,   129,   128</quad4>
			<quad4 id="14">   122,   123,   128,   127</quad4>
			<quad4 id="15">    15,   122,   127,    16</quad4>
			<quad4 id="16">   130,   131,   136,   135</quad4>
			<quad4 id="17">   129,   130,   135,   134</quad4>
			<quad4 id="18">   128,   129,   134,   133</quad4>
			<quad4 id="19">   127,   128,   133,   132</quad4>
			<quad4 id="20">    16,   127,   132,    17</quad4>
<!-- ... 55 like lines cut -->
		</Surface>
	</Geometry>
	<Boundary>
		<fix bc="x" node_set="FixedDisplacement1"/>
		<fix bc="y" node_set="FixedDisplacement2"/>
		<fix bc="z" node_set="FixedDisplacement3"/>
		<fix bc="x,y,z" node_set="FixedDisplacement4"/>
		<bc type="normal displacement" surface="PressureLoad1">
			<scale lc="1">0.3</scale>
			<surface_hint>1</surface_hint>
		</bc>
	</Boundary>
	<LoadData>
		<loadcurve id="1" type="smooth">
			<point>0,0</point>
			<point>1,1</point>
		</loadcurve>
	</LoadData>
	<Output>
		<plotfile type="febio">
			<var type="displacement"/>
			<var type="stress"/>
		</plotfile>
	</Output>
</febio_spec>
