<?xml version="1.0" encoding="ISO-8859-1"?>
<!--
Problem Description:
	Geometrically onlinear.analysis of a cantilever beam.  A 269.35 N load is applied
	in the y-direction to a 10 m beam (100 mm thick x 150 mm high).  Results are
	consistent with the analytical solution.
Main Features:
	Verification problem for FEBio paper.
Secondary Features:
	Nodal force
Materials:
	Isotropic elastic
Degrees of Freedom: 4800
Results:
	Steps Completed: 60
	Equilibrium Iterations: 738
	Right Hand Evaluations: 1032
	Siffness Reformations: 97
	Other:
		The maximum y-displacement is 8.18e3 at time t=1.
 
Comments:
	
-->
<febio_spec version="3.0">
	<Module type="solid"/>
	<Control>
		<analysis>STATIC</analysis>
		<time_steps>100</time_steps>
		<step_size>0.01</step_size>
		<solver>
			<max_refs>15</max_refs>
			<max_ups>10</max_ups>
			<diverge_reform>1</diverge_reform>
			<reform_each_time_step>1</reform_each_time_step>
			<dtol>0.001</dtol>
			<etol>0.01</etol>
			<rtol>0</rtol>
			<lstol>0.9</lstol>
			<min_residual>1e-20</min_residual>
			<qnmethod>BFGS</qnmethod>
			<rhoi>-2</rhoi>
		</solver>
		<time_stepper>
			<dtmin>0.01</dtmin>
			<dtmax>0.1</dtmax>
			<max_retries>5</max_retries>
			<opt_iter>10</opt_iter>
		</time_stepper>
	</Control>
	<Globals>
		<Constants>
			<T>0</T>
			<R>0</R>
			<Fc>0</Fc>
		</Constants>
	</Globals>
	<Material>
		<material id="1" name="Material 2" type="isotropic elastic">
			<density>1</density>
			<E>100</E>
			<v>0</v>
		</material>
	</Material>
	<Mesh>
		<Nodes name="Object01">
			<node id="1">-50,-73.900002,0</node>
			<node id="2">-50,-73.900002,25</node>
			<node id="3">-50,-73.900002,50</node>
			<node id="4">-50,-73.900002,75</node>
			<node id="5">-50,-73.900002,100</node>
			<node id="6">-50,-73.900002,125</node>
			<node id="7">-50,-73.900002,150</node>
			<node id="8">-50,-73.900002,175</node>
			<node id="9">-50,-73.900002,200</node>
			<node id="10">-50,-73.900002,225</node>
			<node id="11">-50,-73.900002,250</node>
			<node id="12">-50,-73.900002,275</node>
			<node id="13">-50,-73.900002,300</node>
			<node id="14">-50,-73.900002,325</node>
			<node id="15">-50,-73.900002,350</node>
			<node id="16">-50,-73.900002,375</node>
			<node id="17">-50,-73.900002,400</node>
			<node id="18">-50,-73.900002,425</node>
			<node id="19">-50,-73.900002,450</node>
			<node id="20">-50,-73.900002,475</node>
<!-- ... 1584 like lines cut -->
		</Nodes>
		<Elements type="hex8" name="Part20">
			<elem id="1">1,803,1204,402,2,804,1205,403</elem>
			<elem id="2">2,804,1205,403,3,805,1206,404</elem>
			<elem id="3">3,805,1206,404,4,806,1207,405</elem>
			<elem id="4">4,806,1207,405,5,807,1208,406</elem>
			<elem id="5">5,807,1208,406,6,808,1209,407</elem>
			<elem id="6">6,808,1209,407,7,809,1210,408</elem>
			<elem id="7">7,809,1210,408,8,810,1211,409</elem>
			<elem id="8">8,810,1211,409,9,811,1212,410</elem>
			<elem id="9">9,811,1212,410,10,812,1213,411</elem>
			<elem id="10">10,812,1213,411,11,813,1214,412</elem>
			<elem id="11">11,813,1214,412,12,814,1215,413</elem>
			<elem id="12">12,814,1215,413,13,815,1216,414</elem>
			<elem id="13">13,815,1216,414,14,816,1217,415</elem>
			<elem id="14">14,816,1217,415,15,817,1218,416</elem>
			<elem id="15">15,817,1218,416,16,818,1219,417</elem>
			<elem id="16">16,818,1219,417,17,819,1220,418</elem>
			<elem id="17">17,819,1220,418,18,820,1221,419</elem>
			<elem id="18">18,820,1221,419,19,821,1222,420</elem>
			<elem id="19">19,821,1222,420,20,822,1223,421</elem>
			<elem id="20">20,822,1223,421,21,823,1224,422</elem>
<!-- ... 380 like lines cut -->
		</Elements>
		<NodeSet name="FixedDisplacement01">
			<n id="1"/>
			<n id="402"/>
			<n id="803"/>
			<n id="1204"/>
		</NodeSet>
		<NodeSet name="FixedDisplacement02">
			<n id="1"/>
			<n id="402"/>
			<n id="803"/>
			<n id="1204"/>
		</NodeSet>
		<NodeSet name="FixedDisplacement03">
			<n id="1"/>
			<n id="402"/>
			<n id="803"/>
			<n id="1204"/>
		</NodeSet>
		<NodeSet name="ForceNodeset01">
			<n id="401"/>
			<n id="1203"/>
		</NodeSet>
		<ElementSet name="unnamed_set01">
			<e id="140"/>
		</ElementSet>
	</Mesh>
	<MeshDomains>
		<SolidDomain name="Part20" mat="Material 2"/>
	</MeshDomains>
	<Boundary>
		<bc name="FixedDisplacement01" type="fix" node_set="FixedDisplacement01">
			<dofs>z</dofs>
		</bc>
		<bc name="FixedDisplacement02" type="fix" node_set="FixedDisplacement02">
			<dofs>y</dofs>
		</bc>
		<bc name="FixedDisplacement03" type="fix" node_set="FixedDisplacement03">
			<dofs>x</dofs>
		</bc>
	</Boundary>
	<Loads>
		<nodal_load name="ForceLoad01" type="nodal_load" node_set="ForceNodeset01">
			<dof>y</dof>
			<scale lc="1">1</scale>
		</nodal_load>
	</Loads>
	<LoadData>
		<load_controller id="1" type="loadcurve">
			<interpolate>LINEAR</interpolate>
			<points>
				<point>0,0</point>
				<point>1,134.675</point>
			</points>
		</load_controller>
	</LoadData>
	<Output>
		<plotfile type="febio">
			<var type="displacement"/>
			<var type="stress"/>
		</plotfile>
		<logfile>
			<element_data data="sy" elem_set="unnamed_set01"/>
		</logfile>
	</Output>
</febio_spec>
