<?xml version="1.0" encoding="ISO-8859-1"?>
<!--
Tied contact of multiphasic rectangular blocks in unconfined
compression under a prescribed uniform normal traction

The tied interface enforces continuity of the effective fluid
pressure and the effective solute concentrations for those
solutes shared by the two tied domains
-->
<febio_spec version="3.0">
	<Module type="multiphasic"/>
	<Control>
		<analysis>TRANSIENT</analysis>
		<time_steps>20</time_steps>
		<step_size>0.1</step_size>
		<solver>
			<max_refs>15</max_refs>
			<max_ups>0</max_ups>
			<diverge_reform>1</diverge_reform>
			<reform_each_time_step>1</reform_each_time_step>
			<dtol>0.001</dtol>
			<etol>0.01</etol>
			<rtol>0</rtol>
			<ptol>0.01</ptol>
			<ctol>0.01</ctol>
			<lstol>0.9</lstol>
			<min_residual>1e-20</min_residual>
			<qnmethod>BROYDEN</qnmethod>
			<symmetric_stiffness>0</symmetric_stiffness>
		</solver>
		<time_stepper>
			<dtmin>0.01</dtmin>
			<dtmax>0.1</dtmax>
			<max_retries>5</max_retries>
			<opt_iter>10</opt_iter>
		</time_stepper>
	</Control>
	<Globals>
		<Constants>
			<T>293</T>
			<R>8.314e-06</R>
			<Fc>9.65e-05</Fc>
		</Constants>
		<Solutes>
			<solute id="1" name="Na+">
				<charge_number>1</charge_number>
				<molar_mass>1</molar_mass>
				<density>1</density>
			</solute>
			<solute id="2" name="K+">
				<charge_number>1</charge_number>
				<molar_mass>1</molar_mass>
				<density>1</density>
			</solute>
			<solute id="3" name="Cl-">
				<charge_number>-1</charge_number>
				<molar_mass>1</molar_mass>
				<density>1</density>
			</solute>
			<solute id="4" name="Glc">
				<charge_number>0</charge_number>
				<molar_mass>1</molar_mass>
				<density>1</density>
			</solute>
		</Solutes>
	</Globals>
	<Material>
		<material id="1" name="Material1" type="multiphasic">
			<phi0>0.2</phi0>
			<fixed_charge_density>0</fixed_charge_density>
			<solid type="neo-Hookean">
				<density>1</density>
				<E>1</E>
				<v>0</v>
			</solid>
			<permeability type="perm-const-iso">
				<perm>1</perm>
			</permeability>
			<osmotic_coefficient type="osm-coef-const">
				<osmcoef>1</osmcoef>
			</osmotic_coefficient>
			<solute sol="1">
				<diffusivity type="diff-const-iso">
					<free_diff>2</free_diff>
					<diff>1</diff>
				</diffusivity>
				<solubility type="solub-const">
					<solub>1</solub>
				</solubility>
			</solute>
			<solute sol="3">
				<diffusivity type="diff-const-iso">
					<free_diff>1</free_diff>
					<diff>0.5</diff>
				</diffusivity>
				<solubility type="solub-const">
					<solub>1</solub>
				</solubility>
			</solute>
			<solute sol="4">
				<diffusivity type="diff-const-iso">
					<free_diff>2</free_diff>
					<diff>1</diff>
				</diffusivity>
				<solubility type="solub-const">
					<solub>1</solub>
				</solubility>
			</solute>
		</material>
		<material id="2" name="Material2" type="multiphasic">
			<phi0>0.2</phi0>
			<fixed_charge_density>0</fixed_charge_density>
			<solid type="neo-Hookean">
				<density>1</density>
				<E>2</E>
				<v>0</v>
			</solid>
			<permeability type="perm-const-iso">
				<perm>1</perm>
			</permeability>
			<osmotic_coefficient type="osm-coef-const">
				<osmcoef>1</osmcoef>
			</osmotic_coefficient>
			<solute sol="2">
				<diffusivity type="diff-const-iso">
					<free_diff>2</free_diff>
					<diff>1</diff>
				</diffusivity>
				<solubility type="solub-const">
					<solub>1</solub>
				</solubility>
			</solute>
			<solute sol="3">
				<diffusivity type="diff-const-iso">
					<free_diff>1</free_diff>
					<diff>0.5</diff>
				</diffusivity>
				<solubility type="solub-const">
					<solub>1</solub>
				</solubility>
			</solute>
			<solute sol="4">
				<diffusivity type="diff-const-iso">
					<free_diff>2</free_diff>
					<diff>1</diff>
				</diffusivity>
				<solubility type="solub-const">
					<solub>1</solub>
				</solubility>
			</solute>
		</material>
	</Material>
	<Mesh>
		<Nodes name="Object01">
			<node id="1">-0.5,-2.7755576e-17,0</node>
			<node id="2">-0.5,-2.7755576e-17,0.2</node>
			<node id="3">-0.5,0.1,0</node>
			<node id="4">-0.5,0.1,0.2</node>
			<node id="5">-0.5,0.2,0</node>
			<node id="6">-0.5,0.2,0.2</node>
			<node id="7">-0.5,0.3,0</node>
			<node id="8">-0.5,0.3,0.2</node>
			<node id="9">-0.5,0.4,0</node>
			<node id="10">-0.5,0.4,0.2</node>
			<node id="11">-0.5,0.5,0</node>
			<node id="12">-0.5,0.5,0.2</node>
			<node id="13">-0.4,-2.7755576e-17,0</node>
			<node id="14">-0.4,-2.7755576e-17,0.2</node>
			<node id="15">-0.4,0.1,0</node>
			<node id="16">-0.4,0.1,0.2</node>
			<node id="17">-0.4,0.2,0</node>
			<node id="18">-0.4,0.2,0.2</node>
			<node id="19">-0.4,0.3,0</node>
			<node id="20">-0.4,0.3,0.2</node>
<!-- ... 244 like lines cut -->
		</Nodes>
		<Elements type="hex8" name="Part3">
			<elem id="1">1,13,15,3,2,14,16,4</elem>
			<elem id="2">3,15,17,5,4,16,18,6</elem>
			<elem id="3">5,17,19,7,6,18,20,8</elem>
			<elem id="4">7,19,21,9,8,20,22,10</elem>
			<elem id="5">9,21,23,11,10,22,24,12</elem>
			<elem id="6">13,25,27,15,14,26,28,16</elem>
			<elem id="7">15,27,29,17,16,28,30,18</elem>
			<elem id="8">17,29,31,19,18,30,32,20</elem>
			<elem id="9">19,31,33,21,20,32,34,22</elem>
			<elem id="10">21,33,35,23,22,34,36,24</elem>
			<elem id="11">25,37,39,27,26,38,40,28</elem>
			<elem id="12">27,39,41,29,28,40,42,30</elem>
			<elem id="13">29,41,43,31,30,42,44,32</elem>
			<elem id="14">31,43,45,33,32,44,46,34</elem>
			<elem id="15">33,45,47,35,34,46,48,36</elem>
			<elem id="16">37,49,51,39,38,50,52,40</elem>
			<elem id="17">39,51,53,41,40,52,54,42</elem>
			<elem id="18">41,53,55,43,42,54,56,44</elem>
			<elem id="19">43,55,57,45,44,56,58,46</elem>
			<elem id="20">45,57,59,47,46,58,60,48</elem>
<!-- ... 30 like lines cut -->
		</Elements>
		<Elements type="hex8" name="Part4">
			<elem id="51">133,145,147,135,134,146,148,136</elem>
			<elem id="52">135,147,149,137,136,148,150,138</elem>
			<elem id="53">137,149,151,139,138,150,152,140</elem>
			<elem id="54">139,151,153,141,140,152,154,142</elem>
			<elem id="55">141,153,155,143,142,154,156,144</elem>
			<elem id="56">145,157,159,147,146,158,160,148</elem>
			<elem id="57">147,159,161,149,148,160,162,150</elem>
			<elem id="58">149,161,163,151,150,162,164,152</elem>
			<elem id="59">151,163,165,153,152,164,166,154</elem>
			<elem id="60">153,165,167,155,154,166,168,156</elem>
			<elem id="61">157,169,171,159,158,170,172,160</elem>
			<elem id="62">159,171,173,161,160,172,174,162</elem>
			<elem id="63">161,173,175,163,162,174,176,164</elem>
			<elem id="64">163,175,177,165,164,176,178,166</elem>
			<elem id="65">165,177,179,167,166,178,180,168</elem>
			<elem id="66">169,181,183,171,170,182,184,172</elem>
			<elem id="67">171,183,185,173,172,184,186,174</elem>
			<elem id="68">173,185,187,175,174,186,188,176</elem>
			<elem id="69">175,187,189,177,176,188,190,178</elem>
			<elem id="70">177,189,191,179,178,190,192,180</elem>
<!-- ... 30 like lines cut -->
		</Elements>
		<NodeSet name="FixedDisplacement01">
			<n id="1"/>
			<n id="2"/>
			<n id="3"/>
			<n id="4"/>
			<n id="5"/>
			<n id="6"/>
			<n id="7"/>
			<n id="8"/>
			<n id="9"/>
			<n id="10"/>
			<n id="11"/>
			<n id="12"/>
			<n id="13"/>
			<n id="14"/>
			<n id="15"/>
			<n id="16"/>
			<n id="17"/>
			<n id="18"/>
			<n id="19"/>
			<n id="20"/>
<!-- ... 508 like lines cut -->
		</NodeSet>
		<NodeSet name="FixedDisplacement02">
			<n id="133"/>
			<n id="134"/>
			<n id="145"/>
			<n id="146"/>
			<n id="157"/>
			<n id="158"/>
			<n id="169"/>
			<n id="170"/>
			<n id="181"/>
			<n id="182"/>
			<n id="193"/>
			<n id="194"/>
			<n id="205"/>
			<n id="206"/>
			<n id="217"/>
			<n id="218"/>
			<n id="229"/>
			<n id="230"/>
			<n id="241"/>
			<n id="242"/>
			<n id="253"/>
			<n id="254"/>
		</NodeSet>
		<NodeSet name="PrescribedBC18">
			<n id="11"/>
			<n id="12"/>
			<n id="23"/>
			<n id="24"/>
			<n id="35"/>
			<n id="36"/>
			<n id="47"/>
			<n id="48"/>
			<n id="59"/>
			<n id="60"/>
			<n id="71"/>
			<n id="72"/>
			<n id="83"/>
			<n id="84"/>
			<n id="95"/>
			<n id="96"/>
			<n id="107"/>
			<n id="108"/>
			<n id="119"/>
			<n id="120"/>
			<n id="131"/>
			<n id="132"/>
		</NodeSet>
		<NodeSet name="PrescribedBC19">
			<n id="11"/>
			<n id="12"/>
			<n id="23"/>
			<n id="24"/>
			<n id="35"/>
			<n id="36"/>
			<n id="47"/>
			<n id="48"/>
			<n id="59"/>
			<n id="60"/>
			<n id="71"/>
			<n id="72"/>
			<n id="83"/>
			<n id="84"/>
			<n id="95"/>
			<n id="96"/>
			<n id="107"/>
			<n id="108"/>
			<n id="119"/>
			<n id="120"/>
			<n id="131"/>
			<n id="132"/>
		</NodeSet>
		<NodeSet name="PrescribedBC20">
			<n id="11"/>
			<n id="12"/>
			<n id="23"/>
			<n id="24"/>
			<n id="35"/>
			<n id="36"/>
			<n id="47"/>
			<n id="48"/>
			<n id="59"/>
			<n id="60"/>
			<n id="71"/>
			<n id="72"/>
			<n id="83"/>
			<n id="84"/>
			<n id="95"/>
			<n id="96"/>
			<n id="107"/>
			<n id="108"/>
			<n id="119"/>
			<n id="120"/>
			<n id="131"/>
			<n id="132"/>
		</NodeSet>
		<NodeSet name="PrescribedBC21">
			<n id="11"/>
			<n id="12"/>
			<n id="23"/>
			<n id="24"/>
			<n id="35"/>
			<n id="36"/>
			<n id="47"/>
			<n id="48"/>
			<n id="59"/>
			<n id="60"/>
			<n id="71"/>
			<n id="72"/>
			<n id="83"/>
			<n id="84"/>
			<n id="95"/>
			<n id="96"/>
			<n id="107"/>
			<n id="108"/>
			<n id="119"/>
			<n id="120"/>
			<n id="131"/>
			<n id="132"/>
		</NodeSet>
		<NodeSet name="InitialConcentration01">
			<n id="133"/>
			<n id="134"/>
			<n id="135"/>
			<n id="136"/>
			<n id="137"/>
			<n id="138"/>
			<n id="139"/>
			<n id="140"/>
			<n id="141"/>
			<n id="142"/>
			<n id="143"/>
			<n id="144"/>
			<n id="145"/>
			<n id="146"/>
			<n id="147"/>
			<n id="148"/>
			<n id="149"/>
			<n id="150"/>
			<n id="151"/>
			<n id="152"/>
<!-- ... 112 like lines cut -->
		</NodeSet>
		<NodeSet name="InitialConcentration02">
			<n id="133"/>
			<n id="134"/>
			<n id="135"/>
			<n id="136"/>
			<n id="137"/>
			<n id="138"/>
			<n id="139"/>
			<n id="140"/>
			<n id="141"/>
			<n id="142"/>
			<n id="143"/>
			<n id="144"/>
			<n id="145"/>
			<n id="146"/>
			<n id="147"/>
			<n id="148"/>
			<n id="149"/>
			<n id="150"/>
			<n id="151"/>
			<n id="152"/>
<!-- ... 112 like lines cut -->
		</NodeSet>
		<NodeSet name="InitialConcentration03">
			<n id="1"/>
			<n id="2"/>
			<n id="3"/>
			<n id="4"/>
			<n id="5"/>
			<n id="6"/>
			<n id="7"/>
			<n id="8"/>
			<n id="9"/>
			<n id="10"/>
			<n id="11"/>
			<n id="12"/>
			<n id="13"/>
			<n id="14"/>
			<n id="15"/>
			<n id="16"/>
			<n id="17"/>
			<n id="18"/>
			<n id="19"/>
			<n id="20"/>
<!-- ... 112 like lines cut -->
		</NodeSet>
		<NodeSet name="InitialConcentration04">
			<n id="1"/>
			<n id="2"/>
			<n id="3"/>
			<n id="4"/>
			<n id="5"/>
			<n id="6"/>
			<n id="7"/>
			<n id="8"/>
			<n id="9"/>
			<n id="10"/>
			<n id="11"/>
			<n id="12"/>
			<n id="13"/>
			<n id="14"/>
			<n id="15"/>
			<n id="16"/>
			<n id="17"/>
			<n id="18"/>
			<n id="19"/>
			<n id="20"/>
<!-- ... 112 like lines cut -->
		</NodeSet>
		<NodeSet name="InitialFluidPressure01">
			<n id="1"/>
			<n id="2"/>
			<n id="3"/>
			<n id="4"/>
			<n id="5"/>
			<n id="6"/>
			<n id="7"/>
			<n id="8"/>
			<n id="9"/>
			<n id="10"/>
			<n id="11"/>
			<n id="12"/>
			<n id="13"/>
			<n id="14"/>
			<n id="15"/>
			<n id="16"/>
			<n id="17"/>
			<n id="18"/>
			<n id="19"/>
			<n id="20"/>
<!-- ... 244 like lines cut -->
		</NodeSet>
		<Surface name="NormalTraction1">
			<quad4 id="1">23,11,12,24</quad4>
			<quad4 id="2">35,23,24,36</quad4>
			<quad4 id="3">47,35,36,48</quad4>
			<quad4 id="4">59,47,48,60</quad4>
			<quad4 id="5">71,59,60,72</quad4>
			<quad4 id="6">83,71,72,84</quad4>
			<quad4 id="7">95,83,84,96</quad4>
			<quad4 id="8">107,95,96,108</quad4>
			<quad4 id="9">119,107,108,120</quad4>
			<quad4 id="10">131,119,120,132</quad4>
		</Surface>
		<Surface name="PrimarySurface01">
			<quad4 id="1">155,143,144,156</quad4>
			<quad4 id="2">167,155,156,168</quad4>
			<quad4 id="3">179,167,168,180</quad4>
			<quad4 id="4">191,179,180,192</quad4>
			<quad4 id="5">203,191,192,204</quad4>
			<quad4 id="6">215,203,204,216</quad4>
			<quad4 id="7">227,215,216,228</quad4>
			<quad4 id="8">239,227,228,240</quad4>
			<quad4 id="9">251,239,240,252</quad4>
			<quad4 id="10">263,251,252,264</quad4>
		</Surface>
		<Surface name="SecondarySurface01">
			<quad4 id="1">1,13,14,2</quad4>
			<quad4 id="2">13,25,26,14</quad4>
			<quad4 id="3">25,37,38,26</quad4>
			<quad4 id="4">37,49,50,38</quad4>
			<quad4 id="5">49,61,62,50</quad4>
			<quad4 id="6">61,73,74,62</quad4>
			<quad4 id="7">73,85,86,74</quad4>
			<quad4 id="8">85,97,98,86</quad4>
			<quad4 id="9">97,109,110,98</quad4>
			<quad4 id="10">109,121,122,110</quad4>
		</Surface>
		<ElementSet name="unnamed_set01">
			<e id="1"/>
		</ElementSet>
		<SurfacePair name="TiedBiphasic01">
			<primary>PrimarySurface01</primary>
			<secondary>SecondarySurface01</secondary>
		</SurfacePair>
	</Mesh>
	<MeshDomains>
		<SolidDomain name="Part3" mat="Material1"/>
		<SolidDomain name="Part4" mat="Material2"/>
	</MeshDomains>
	<Boundary>
		<bc name="FixedDisplacement01" type="fix" node_set="FixedDisplacement01">
			<dofs>z</dofs>
		</bc>
		<bc name="FixedDisplacement02" type="fix" node_set="FixedDisplacement02">
			<dofs>x,y</dofs>
		</bc>
		<bc name="PrescribedBC18" type="prescribe" node_set="PrescribedBC18">
			<dof>p</dof>
			<scale lc="1">1</scale>
			<relative>0</relative>
		</bc>
		<bc name="PrescribedBC19" type="prescribe" node_set="PrescribedBC19">
			<dof>c1</dof>
			<scale lc="2">1</scale>
			<relative>0</relative>
		</bc>
		<bc name="PrescribedBC20" type="prescribe" node_set="PrescribedBC20">
			<dof>c3</dof>
			<scale lc="3">1</scale>
			<relative>0</relative>
		</bc>
		<bc name="PrescribedBC21" type="prescribe" node_set="PrescribedBC21">
			<dof>c4</dof>
			<scale lc="4">1</scale>
			<relative>0</relative>
		</bc>
	</Boundary>
	<Loads>
		<surface_load name="NormalTraction0" type="normal_traction" surface="NormalTraction1">
			<traction lc="5">1</traction>
			<linear>0</linear>
			<effective>0</effective>
		</surface_load>
	</Loads>
	<Contact>
		<contact type="tied-multiphasic" name="TiedBiphasic01" surface_pair="TiedBiphasic01">
			<laugon>0</laugon>
			<tolerance>0.2</tolerance>
			<gaptol>0</gaptol>
			<ptol>0</ptol>
			<penalty>10</penalty>
			<auto_penalty>1</auto_penalty>
			<two_pass>1</two_pass>
			<search_tol>0.01</search_tol>
			<pressure_penalty>10</pressure_penalty>
			<concentration_penalty>10</concentration_penalty>
			<symmetric_stiffness>0</symmetric_stiffness>
			<search_radius>1</search_radius>
			<minaug>0</minaug>
			<maxaug>10</maxaug>
			<update_penalty>0</update_penalty>
		</contact>
	</Contact>
	<Initial>
		<ic type="init_dof" node_set="InitialConcentration01">
			<dof>c2</dof>
			<value>145</value>
		</ic>
		<ic type="init_dof" node_set="InitialConcentration02">
			<dof>c3</dof>
			<value>145</value>
		</ic>
		<ic type="init_dof" node_set="InitialConcentration03">
			<dof>c1</dof>
			<value>145</value>
		</ic>
		<ic type="init_dof" node_set="InitialConcentration04">
			<dof>c3</dof>
			<value>145</value>
		</ic>
		<ic type="init_dof" node_set="InitialFluidPressure01">
			<dof>p</dof>
			<value>-0.706441</value>
		</ic>
	</Initial>
	<LoadData>
		<load_controller id="1" type="loadcurve">
			<interpolate>SMOOTH</interpolate>
			<points>
				<point>0,-0.70644058</point>
				<point>1,-0.7308006</point>
			</points>
		</load_controller>
		<load_controller id="2" type="loadcurve">
			<interpolate>STEP</interpolate>
			<points>
				<point>0,0</point>
				<point>1,145</point>
			</points>
		</load_controller>
		<load_controller id="3" type="loadcurve">
			<interpolate>STEP</interpolate>
			<points>
				<point>0,0</point>
				<point>1,145</point>
			</points>
		</load_controller>
		<load_controller id="4" type="loadcurve">
			<interpolate>SMOOTH</interpolate>
			<points>
				<point>0,0</point>
				<point>1,10</point>
			</points>
		</load_controller>
		<load_controller id="5" type="loadcurve">
			<interpolate>SMOOTH</interpolate>
			<points>
				<point>0,0</point>
				<point>1,-0.2</point>
			</points>
		</load_controller>
	</LoadData>
	<Output>
		<plotfile type="febio">
			<var type="contact gap"/>
			<var type="contact pressure"/>
			<var type="contact traction"/>
			<var type="displacement"/>
			<var type="relative volume"/>
			<var type="stress"/>
			<var type="effective fluid pressure"/>
			<var type="fluid pressure"/>
			<var type="fluid flux"/>
			<var type="effective solute concentration"/>
			<var type="electric potential"/>
			<var type="osmolarity"/>
			<var type="solute concentration"/>
			<var type="solute flux"/>
		</plotfile>
		<logfile>
			<element_data data="sy" elem_set="unnamed_set01"/>
		</logfile>
	</Output>
</febio_spec>
