<?xml version="1.0" encoding="ISO-8859-1"?>
<!--
Problem Description:
	Internal pressurization of multiphasic arterial wall
Main Features:
	Holzapfel-Gasser-Ogden unconstrained material for arterial wall
	Combined application of mixture normal traction and fluid pressure
Secondary Features:
	Steady-state multiphasic analysis
Materials:
	Multiphasic
	HGO unconstrained
Degrees of Freedom: 4208
Results:
	Steps Completed: 22
	Equilibrium Iterations: 127
	Right Hand Evaluations: 151
	Siffness Reformations: 127
Comments:
	Units: mm-N-s
	The fluid pressure prescribed on the inner wall is an effective fluid 
	pressure, calculated from the desired actual pressure and the 
	osmolarity of the (implicit) fluid inside the artery (300 mM). 
	From t=0 to t=1 the fixed-charge density of the arterial wall is 
	increased, while the inner arterial wall is prescribed zero actual 
	fluid pressure (effective fluid pressure = -0.7432716 MPa).
	From t=1 to t=2 the mixture normal traction decreases from 0 to 
	-0.013 MPa linearly while the actual fluid pressure is increased 
	from 0 to 0.013 MPa (effective fluid pressure increases from 
	-0.7432716 MPa to -0.7302716 MPa).
-->
<febio_spec version="3.0">
	<Module type="multiphasic"/>
	<Control>
		<analysis>STEADY-STATE</analysis>
		<time_steps>20</time_steps>
		<step_size>0.1</step_size>
		<solver>
			<max_refs>25</max_refs>
			<max_ups>0</max_ups>
			<diverge_reform>1</diverge_reform>
			<reform_each_time_step>1</reform_each_time_step>
			<dtol>0.001</dtol>
			<etol>0.01</etol>
			<rtol>0</rtol>
			<ptol>0.01</ptol>
			<ctol>0.01</ctol>
			<lstol>0.9</lstol>
			<min_residual>1e-20</min_residual>
			<qnmethod>BROYDEN</qnmethod>
			<symmetric_stiffness>0</symmetric_stiffness>
		</solver>
		<time_stepper>
			<dtmin>0.01</dtmin>
			<dtmax>0.1</dtmax>
			<max_retries>5</max_retries>
			<opt_iter>10</opt_iter>
		</time_stepper>
	</Control>
	<Globals>
		<Constants>
			<T>298</T>
			<R>8.314e-06</R>
			<Fc>9.65e-05</Fc>
		</Constants>
		<Solutes>
			<solute id="1" name="Na+">
				<charge_number>1</charge_number>
				<molar_mass>1</molar_mass>
				<density>1</density>
			</solute>
			<solute id="2" name="Cl-">
				<charge_number>-1</charge_number>
				<molar_mass>1</molar_mass>
				<density>1</density>
			</solute>
		</Solutes>
	</Globals>
	<Material>
		<material id="1" name="Media" type="multiphasic">
			<phi0>0.3</phi0>
			<fixed_charge_density lc="1">-40</fixed_charge_density>
			<solid type="HGO unconstrained">
				<density>1</density>
				<c>0.00764</c>
				<k1>0.9966</k1>
				<k2>524.6</k2>
				<kappa>0.226</kappa>
				<gamma>49.98</gamma>
				<k>0.764</k>
			</solid>
			<permeability type="perm-const-iso">
				<perm>0.001</perm>
			</permeability>
			<osmotic_coefficient type="osm-coef-const">
				<osmcoef>1</osmcoef>
			</osmotic_coefficient>
			<solute sol="1">
				<diffusivity type="diff-const-iso">
					<free_diff>0.001</free_diff>
					<diff>0.001</diff>
				</diffusivity>
				<solubility type="solub-const">
					<solub>1</solub>
				</solubility>
			</solute>
			<solute sol="2">
				<diffusivity type="diff-const-iso">
					<free_diff>0.001</free_diff>
					<diff>0.001</diff>
				</diffusivity>
				<solubility type="solub-const">
					<solub>1</solub>
				</solubility>
			</solute>
		</material>
		<material id="2" name="Adventitia" type="multiphasic">
			<phi0>0.3</phi0>
			<fixed_charge_density>0</fixed_charge_density>
			<solid type="HGO unconstrained">
				<density>1</density>
				<c>0.00764</c>
				<k1>0.9966</k1>
				<k2>524.6</k2>
				<kappa>0.226</kappa>
				<gamma>49.98</gamma>
				<k>0.764</k>
			</solid>
			<permeability type="perm-const-iso">
				<perm>0.001</perm>
			</permeability>
			<osmotic_coefficient type="osm-coef-const">
				<osmcoef>1</osmcoef>
			</osmotic_coefficient>
			<solute sol="1">
				<diffusivity type="diff-const-iso">
					<free_diff>0.001</free_diff>
					<diff>0.001</diff>
				</diffusivity>
				<solubility type="solub-const">
					<solub>1</solub>
				</solubility>
			</solute>
			<solute sol="2">
				<diffusivity type="diff-const-iso">
					<free_diff>0.001</free_diff>
					<diff>0.001</diff>
				</diffusivity>
				<solubility type="solub-const">
					<solub>1</solub>
				</solubility>
			</solute>
		</material>
		<material id="3" name="Intermediate" type="multiphasic">
			<phi0>0.3</phi0>
			<fixed_charge_density lc="2">-20</fixed_charge_density>
			<solid type="HGO unconstrained">
				<density>1</density>
				<c>0.00764</c>
				<k1>0.9966</k1>
				<k2>524.6</k2>
				<kappa>0.226</kappa>
				<gamma>49.98</gamma>
				<k>0.764</k>
			</solid>
			<permeability type="perm-const-iso">
				<perm>0.001</perm>
			</permeability>
			<osmotic_coefficient type="osm-coef-const">
				<osmcoef>1</osmcoef>
			</osmotic_coefficient>
			<solute sol="1">
				<diffusivity type="diff-const-iso">
					<free_diff>0.001</free_diff>
					<diff>0.001</diff>
				</diffusivity>
				<solubility type="solub-const">
					<solub>1</solub>
				</solubility>
			</solute>
			<solute sol="2">
				<diffusivity type="diff-const-iso">
					<free_diff>0.001</free_diff>
					<diff>0.001</diff>
				</diffusivity>
				<solubility type="solub-const">
					<solub>1</solub>
				</solubility>
			</solute>
		</material>
	</Material>
	<Mesh>
		<Nodes name="Object2">
			<node id="1">0.8915,0,0</node>
			<node id="2">0.9052,0,0</node>
			<node id="3">0.9189,0,0</node>
			<node id="4">0.9326,0,0</node>
			<node id="5">0.9463,0,0</node>
			<node id="6">0.96,0,0</node>
			<node id="7">0.887207184,0.0873822791,0</node>
			<node id="8">0.900841215,0.0887251139,0</node>
			<node id="9">0.914475245,0.0900679487,0</node>
			<node id="10">0.928109276,0.0914107835,0</node>
			<node id="11">0.941743307,0.0927536183,0</node>
			<node id="12">0.955377338,0.0940964531,0</node>
			<node id="13">0.874370078,0.173923019,0</node>
			<node id="14">0.887806836,0.176595757,0</node>
			<node id="15">0.901243595,0.179268494,0</node>
			<node id="16">0.914680353,0.181941231,0</node>
			<node id="17">0.928117111,0.184613969,0</node>
			<node id="18">0.94155387,0.187286706,0</node>
			<node id="19">0.853112311,0.258788785,0</node>
			<node id="20">0.866222393,0.262765685,0</node>
<!-- ... 748 like lines cut -->
		</Nodes>
		<Elements type="hex8" name="Part2">
			<elem id="1">4,5,11,10,388,389,395,394</elem>
			<elem id="2">5,6,12,11,389,390,396,395</elem>
			<elem id="3">10,11,17,16,394,395,401,400</elem>
			<elem id="4">11,12,18,17,395,396,402,401</elem>
			<elem id="5">16,17,23,22,400,401,407,406</elem>
			<elem id="6">17,18,24,23,401,402,408,407</elem>
			<elem id="7">22,23,29,28,406,407,413,412</elem>
			<elem id="8">23,24,30,29,407,408,414,413</elem>
			<elem id="9">28,29,35,34,412,413,419,418</elem>
			<elem id="10">29,30,36,35,413,414,420,419</elem>
			<elem id="11">34,35,41,40,418,419,425,424</elem>
			<elem id="12">35,36,42,41,419,420,426,425</elem>
			<elem id="13">40,41,47,46,424,425,431,430</elem>
			<elem id="14">41,42,48,47,425,426,432,431</elem>
			<elem id="15">46,47,53,52,430,431,437,436</elem>
			<elem id="16">47,48,54,53,431,432,438,437</elem>
			<elem id="17">52,53,59,58,436,437,443,442</elem>
			<elem id="18">53,54,60,59,437,438,444,443</elem>
			<elem id="19">58,59,65,64,442,443,449,448</elem>
			<elem id="20">59,60,66,65,443,444,450,449</elem>
<!-- ... 108 like lines cut -->
		</Elements>
		<Elements type="hex8" name="Part7">
			<elem id="129">3,4,10,9,387,388,394,393</elem>
			<elem id="130">9,10,16,15,393,394,400,399</elem>
			<elem id="131">15,16,22,21,399,400,406,405</elem>
			<elem id="132">21,22,28,27,405,406,412,411</elem>
			<elem id="133">27,28,34,33,411,412,418,417</elem>
			<elem id="134">33,34,40,39,417,418,424,423</elem>
			<elem id="135">39,40,46,45,423,424,430,429</elem>
			<elem id="136">45,46,52,51,429,430,436,435</elem>
			<elem id="137">51,52,58,57,435,436,442,441</elem>
			<elem id="138">57,58,64,63,441,442,448,447</elem>
			<elem id="139">63,64,70,69,447,448,454,453</elem>
			<elem id="140">69,70,76,75,453,454,460,459</elem>
			<elem id="141">75,76,82,81,459,460,466,465</elem>
			<elem id="142">81,82,88,87,465,466,472,471</elem>
			<elem id="143">87,88,94,93,471,472,478,477</elem>
			<elem id="144">93,94,100,99,477,478,484,483</elem>
			<elem id="145">99,100,106,105,483,484,490,489</elem>
			<elem id="146">105,106,112,111,489,490,496,495</elem>
			<elem id="147">111,112,118,117,495,496,502,501</elem>
			<elem id="148">117,118,124,123,501,502,508,507</elem>
<!-- ... 44 like lines cut -->
		</Elements>
		<Elements type="hex8" name="Part8">
			<elem id="193">1,2,8,7,385,386,392,391</elem>
			<elem id="194">2,3,9,8,386,387,393,392</elem>
			<elem id="195">7,8,14,13,391,392,398,397</elem>
			<elem id="196">8,9,15,14,392,393,399,398</elem>
			<elem id="197">13,14,20,19,397,398,404,403</elem>
			<elem id="198">14,15,21,20,398,399,405,404</elem>
			<elem id="199">19,20,26,25,403,404,410,409</elem>
			<elem id="200">20,21,27,26,404,405,411,410</elem>
			<elem id="201">25,26,32,31,409,410,416,415</elem>
			<elem id="202">26,27,33,32,410,411,417,416</elem>
			<elem id="203">31,32,38,37,415,416,422,421</elem>
			<elem id="204">32,33,39,38,416,417,423,422</elem>
			<elem id="205">37,38,44,43,421,422,428,427</elem>
			<elem id="206">38,39,45,44,422,423,429,428</elem>
			<elem id="207">43,44,50,49,427,428,434,433</elem>
			<elem id="208">44,45,51,50,428,429,435,434</elem>
			<elem id="209">49,50,56,55,433,434,440,439</elem>
			<elem id="210">50,51,57,56,434,435,441,440</elem>
			<elem id="211">55,56,62,61,439,440,446,445</elem>
			<elem id="212">56,57,63,62,440,441,447,446</elem>
<!-- ... 108 like lines cut -->
		</Elements>
		<NodeSet name="FixedDisplacement1">
			<n id="97"/>
			<n id="102"/>
			<n id="289"/>
			<n id="294"/>
			<n id="481"/>
			<n id="486"/>
			<n id="673"/>
			<n id="678"/>
		</NodeSet>
		<NodeSet name="FixedDisplacement2">
			<n id="1"/>
			<n id="6"/>
			<n id="193"/>
			<n id="198"/>
			<n id="385"/>
			<n id="390"/>
			<n id="577"/>
			<n id="582"/>
		</NodeSet>
		<NodeSet name="InitialFluidPressure1">
			<n id="1"/>
			<n id="2"/>
			<n id="3"/>
			<n id="4"/>
			<n id="5"/>
			<n id="6"/>
			<n id="7"/>
			<n id="8"/>
			<n id="9"/>
			<n id="10"/>
			<n id="11"/>
			<n id="12"/>
			<n id="13"/>
			<n id="14"/>
			<n id="15"/>
			<n id="16"/>
			<n id="17"/>
			<n id="18"/>
			<n id="19"/>
			<n id="20"/>
<!-- ... 748 like lines cut -->
		</NodeSet>
		<NodeSet name="InitialEffectiveConcentration1">
			<n id="1"/>
			<n id="2"/>
			<n id="3"/>
			<n id="4"/>
			<n id="5"/>
			<n id="6"/>
			<n id="7"/>
			<n id="8"/>
			<n id="9"/>
			<n id="10"/>
			<n id="11"/>
			<n id="12"/>
			<n id="13"/>
			<n id="14"/>
			<n id="15"/>
			<n id="16"/>
			<n id="17"/>
			<n id="18"/>
			<n id="19"/>
			<n id="20"/>
<!-- ... 748 like lines cut -->
		</NodeSet>
		<NodeSet name="InitialEffectiveConcentration2">
			<n id="1"/>
			<n id="2"/>
			<n id="3"/>
			<n id="4"/>
			<n id="5"/>
			<n id="6"/>
			<n id="7"/>
			<n id="8"/>
			<n id="9"/>
			<n id="10"/>
			<n id="11"/>
			<n id="12"/>
			<n id="13"/>
			<n id="14"/>
			<n id="15"/>
			<n id="16"/>
			<n id="17"/>
			<n id="18"/>
			<n id="19"/>
			<n id="20"/>
<!-- ... 748 like lines cut -->
		</NodeSet>
		<Surface name="FixedDisplacement3">
			<quad4 id="1">5,4,10,11</quad4>
			<quad4 id="2">6,5,11,12</quad4>
			<quad4 id="3">11,10,16,17</quad4>
			<quad4 id="4">12,11,17,18</quad4>
			<quad4 id="5">17,16,22,23</quad4>
			<quad4 id="6">18,17,23,24</quad4>
			<quad4 id="7">23,22,28,29</quad4>
			<quad4 id="8">24,23,29,30</quad4>
			<quad4 id="9">29,28,34,35</quad4>
			<quad4 id="10">30,29,35,36</quad4>
			<quad4 id="11">35,34,40,41</quad4>
			<quad4 id="12">36,35,41,42</quad4>
			<quad4 id="13">41,40,46,47</quad4>
			<quad4 id="14">42,41,47,48</quad4>
			<quad4 id="15">47,46,52,53</quad4>
			<quad4 id="16">48,47,53,54</quad4>
			<quad4 id="17">53,52,58,59</quad4>
			<quad4 id="18">54,53,59,60</quad4>
			<quad4 id="19">59,58,64,65</quad4>
			<quad4 id="20">60,59,65,66</quad4>
<!-- ... 300 like lines cut -->
		</Surface>
		<Surface name="PrescribedEffectiveFluidPressure1">
			<quad4 id="1">6,12,396,390</quad4>
			<quad4 id="2">12,18,402,396</quad4>
			<quad4 id="3">18,24,408,402</quad4>
			<quad4 id="4">24,30,414,408</quad4>
			<quad4 id="5">30,36,420,414</quad4>
			<quad4 id="6">36,42,426,420</quad4>
			<quad4 id="7">42,48,432,426</quad4>
			<quad4 id="8">48,54,438,432</quad4>
			<quad4 id="9">54,60,444,438</quad4>
			<quad4 id="10">60,66,450,444</quad4>
			<quad4 id="11">66,72,456,450</quad4>
			<quad4 id="12">72,78,462,456</quad4>
			<quad4 id="13">78,84,468,462</quad4>
			<quad4 id="14">84,90,474,468</quad4>
			<quad4 id="15">90,96,480,474</quad4>
			<quad4 id="16">96,102,486,480</quad4>
			<quad4 id="17">102,108,492,486</quad4>
			<quad4 id="18">108,114,498,492</quad4>
			<quad4 id="19">114,120,504,498</quad4>
			<quad4 id="20">120,126,510,504</quad4>
<!-- ... 108 like lines cut -->
		</Surface>
		<Surface name="PrescribedEffectiveConcentration1">
			<quad4 id="1">6,12,396,390</quad4>
			<quad4 id="2">12,18,402,396</quad4>
			<quad4 id="3">18,24,408,402</quad4>
			<quad4 id="4">24,30,414,408</quad4>
			<quad4 id="5">30,36,420,414</quad4>
			<quad4 id="6">36,42,426,420</quad4>
			<quad4 id="7">42,48,432,426</quad4>
			<quad4 id="8">48,54,438,432</quad4>
			<quad4 id="9">54,60,444,438</quad4>
			<quad4 id="10">60,66,450,444</quad4>
			<quad4 id="11">66,72,456,450</quad4>
			<quad4 id="12">72,78,462,456</quad4>
			<quad4 id="13">78,84,468,462</quad4>
			<quad4 id="14">84,90,474,468</quad4>
			<quad4 id="15">90,96,480,474</quad4>
			<quad4 id="16">96,102,486,480</quad4>
			<quad4 id="17">102,108,492,486</quad4>
			<quad4 id="18">108,114,498,492</quad4>
			<quad4 id="19">114,120,504,498</quad4>
			<quad4 id="20">120,126,510,504</quad4>
<!-- ... 108 like lines cut -->
		</Surface>
		<Surface name="PrescribedEffectiveConcentration2">
			<quad4 id="1">6,12,396,390</quad4>
			<quad4 id="2">12,18,402,396</quad4>
			<quad4 id="3">18,24,408,402</quad4>
			<quad4 id="4">24,30,414,408</quad4>
			<quad4 id="5">30,36,420,414</quad4>
			<quad4 id="6">36,42,426,420</quad4>
			<quad4 id="7">42,48,432,426</quad4>
			<quad4 id="8">48,54,438,432</quad4>
			<quad4 id="9">54,60,444,438</quad4>
			<quad4 id="10">60,66,450,444</quad4>
			<quad4 id="11">66,72,456,450</quad4>
			<quad4 id="12">72,78,462,456</quad4>
			<quad4 id="13">78,84,468,462</quad4>
			<quad4 id="14">84,90,474,468</quad4>
			<quad4 id="15">90,96,480,474</quad4>
			<quad4 id="16">96,102,486,480</quad4>
			<quad4 id="17">102,108,492,486</quad4>
			<quad4 id="18">108,114,498,492</quad4>
			<quad4 id="19">114,120,504,498</quad4>
			<quad4 id="20">120,126,510,504</quad4>
<!-- ... 108 like lines cut -->
		</Surface>
		<Surface name="MixtureNormalTraction1">
			<quad4 id="1">7,1,385,391</quad4>
			<quad4 id="2">13,7,391,397</quad4>
			<quad4 id="3">19,13,397,403</quad4>
			<quad4 id="4">25,19,403,409</quad4>
			<quad4 id="5">31,25,409,415</quad4>
			<quad4 id="6">37,31,415,421</quad4>
			<quad4 id="7">43,37,421,427</quad4>
			<quad4 id="8">49,43,427,433</quad4>
			<quad4 id="9">55,49,433,439</quad4>
			<quad4 id="10">61,55,439,445</quad4>
			<quad4 id="11">67,61,445,451</quad4>
			<quad4 id="12">73,67,451,457</quad4>
			<quad4 id="13">79,73,457,463</quad4>
			<quad4 id="14">85,79,463,469</quad4>
			<quad4 id="15">91,85,469,475</quad4>
			<quad4 id="16">97,91,475,481</quad4>
			<quad4 id="17">103,97,481,487</quad4>
			<quad4 id="18">109,103,487,493</quad4>
			<quad4 id="19">115,109,493,499</quad4>
			<quad4 id="20">121,115,499,505</quad4>
<!-- ... 44 like lines cut -->
		</Surface>
	</Mesh>
	<MeshDomains>
		<SolidDomain name="Part2" mat="Adventitia"/>
		<SolidDomain name="Part7" mat="Intermediate"/>
		<SolidDomain name="Part8" mat="Media"/>
	</MeshDomains>
	<MeshData>
		<ElementData var="mat_axis" elem_set="Part2">
			<e lid="1">
				<a>-0.0490677,0.998795,0</a>
				<d>0,0,1</d>
			</e>
			<e lid="2">
				<a>-0.0490677,0.998795,0</a>
				<d>0,0,1</d>
			</e>
			<e lid="3">
				<a>-0.14673,0.989177,0</a>
				<d>0,0,1</d>
			</e>
			<e lid="4">
				<a>-0.14673,0.989177,0</a>
				<d>0,0,1</d>
			</e>
			<e lid="5">
				<a>-0.24298,0.970031,0</a>
				<d>0,0,1</d>
			</e>
			<e lid="6">
				<a>-0.24298,0.970031,0</a>
				<d>0,0,1</d>
			</e>
			<e lid="7">
				<a>-0.33689,0.941544,0</a>
				<d>0,0,1</d>
			</e>
			<e lid="8">
				<a>-0.33689,0.941544,0</a>
				<d>0,0,1</d>
			</e>
			<e lid="9">
				<a>-0.427555,0.903989,0</a>
				<d>0,0,1</d>
			</e>
			<e lid="10">
				<a>-0.427555,0.903989,0</a>
				<d>0,0,1</d>
			</e>
			<e lid="11">
				<a>-0.514103,0.857729,0</a>
				<d>0,0,1</d>
			</e>
			<e lid="12">
				<a>-0.514103,0.857729,0</a>
				<d>0,0,1</d>
			</e>
			<e lid="13">
				<a>-0.595699,0.803208,0</a>
				<d>0,0,1</d>
			</e>
			<e lid="14">
				<a>-0.595699,0.803208,0</a>
				<d>0,0,1</d>
			</e>
			<e lid="15">
				<a>-0.671559,0.740951,0</a>
				<d>0,0,1</d>
			</e>
			<e lid="16">
				<a>-0.671559,0.740951,0</a>
				<d>0,0,1</d>
			</e>
			<e lid="17">
				<a>-0.740951,0.671559,0</a>
				<d>0,0,1</d>
			</e>
			<e lid="18">
				<a>-0.740951,0.671559,0</a>
				<d>0,0,1</d>
			</e>
			<e lid="19">
				<a>-0.803208,0.595699,0</a>
				<d>0,0,1</d>
			</e>
			<e lid="20">
				<a>-0.803208,0.595699,0</a>
				<d>0,0,1</d>
			</e>
			<e lid="21">
				<a>-0.857729,0.514103,0</a>
				<d>0,0,1</d>
			</e>
			<e lid="22">
				<a>-0.857729,0.514103,0</a>
				<d>0,0,1</d>
			</e>
			<e lid="23">
				<a>-0.903989,0.427555,0</a>
				<d>0,0,1</d>
			</e>
			<e lid="24">
				<a>-0.903989,0.427555,0</a>
				<d>0,0,1</d>
			</e>
			<e lid="25">
				<a>-0.941544,0.33689,0</a>
				<d>0,0,1</d>
			</e>
			<e lid="26">
				<a>-0.941544,0.33689,0</a>
				<d>0,0,1</d>
			</e>
			<e lid="27">
				<a>-0.970031,0.24298,0</a>
				<d>0,0,1</d>
			</e>
			<e lid="28">
				<a>-0.970031,0.24298,0</a>
				<d>0,0,1</d>
			</e>
			<e lid="29">
				<a>-0.989177,0.14673,0</a>
				<d>0,0,1</d>
			</e>
			<e lid="30">
				<a>-0.989177,0.14673,0</a>
				<d>0,0,1</d>
			</e>
			<e lid="31">
				<a>-0.998795,0.0490677,0</a>
				<d>0,0,1</d>
			</e>
			<e lid="32">
				<a>-0.998795,0.0490677,0</a>
				<d>0,0,1</d>
			</e>
			<e lid="33">
				<a>-0.998795,-0.0490676,0</a>
				<d>0,0,1</d>
			</e>
			<e lid="34">
				<a>-0.998795,-0.0490676,0</a>
				<d>0,0,1</d>
			</e>
			<e lid="35">
				<a>-0.989177,-0.14673,0</a>
				<d>0,0,1</d>
			</e>
			<e lid="36">
				<a>-0.989177,-0.14673,0</a>
				<d>0,0,1</d>
			</e>
			<e lid="37">
				<a>-0.970031,-0.24298,0</a>
				<d>0,0,1</d>
			</e>
			<e lid="38">
				<a>-0.970031,-0.24298,0</a>
				<d>0,0,1</d>
			</e>
			<e lid="39">
				<a>-0.941544,-0.33689,0</a>
				<d>0,0,1</d>
			</e>
			<e lid="40">
				<a>-0.941544,-0.33689,0</a>
				<d>0,0,1</d>
			</e>
			<e lid="41">
				<a>-0.903989,-0.427555,0</a>
				<d>0,0,1</d>
			</e>
			<e lid="42">
				<a>-0.903989,-0.427555,0</a>
				<d>0,0,1</d>
			</e>
			<e lid="43">
				<a>-0.857729,-0.514103,0</a>
				<d>0,0,1</d>
			</e>
			<e lid="44">
				<a>-0.857729,-0.514103,0</a>
				<d>0,0,1</d>
			</e>
			<e lid="45">
				<a>-0.803208,-0.595699,0</a>
				<d>0,0,1</d>
			</e>
			<e lid="46">
				<a>-0.803208,-0.595699,0</a>
				<d>0,0,1</d>
			</e>
			<e lid="47">
				<a>-0.740951,-0.671559,0</a>
				<d>0,0,1</d>
			</e>
			<e lid="48">
				<a>-0.740951,-0.671559,0</a>
				<d>0,0,1</d>
			</e>
			<e lid="49">
				<a>-0.671559,-0.740951,0</a>
				<d>0,0,1</d>
			</e>
			<e lid="50">
				<a>-0.671559,-0.740951,0</a>
				<d>0,0,1</d>
			</e>
			<e lid="51">
				<a>-0.595699,-0.803208,0</a>
				<d>0,0,1</d>
			</e>
			<e lid="52">
				<a>-0.595699,-0.803208,0</a>
				<d>0,0,1</d>
			</e>
			<e lid="53">
				<a>-0.514103,-0.857729,0</a>
				<d>0,0,1</d>
			</e>
			<e lid="54">
				<a>-0.514103,-0.857729,0</a>
				<d>0,0,1</d>
			</e>
			<e lid="55">
				<a>-0.427555,-0.903989,0</a>
				<d>0,0,1</d>
			</e>
			<e lid="56">
				<a>-0.427555,-0.903989,0</a>
				<d>0,0,1</d>
			</e>
			<e lid="57">
				<a>-0.33689,-0.941544,0</a>
				<d>0,0,1</d>
			</e>
			<e lid="58">
				<a>-0.33689,-0.941544,0</a>
				<d>0,0,1</d>
			</e>
			<e lid="59">
				<a>-0.24298,-0.970031,0</a>
				<d>0,0,1</d>
			</e>
			<e lid="60">
				<a>-0.24298,-0.970031,0</a>
				<d>0,0,1</d>
			</e>
			<e lid="61">
				<a>-0.146731,-0.989177,0</a>
				<d>0,0,1</d>
			</e>
			<e lid="62">
				<a>-0.146731,-0.989177,0</a>
				<d>0,0,1</d>
			</e>
			<e lid="63">
				<a>-0.0490677,-0.998795,0</a>
				<d>0,0,1</d>
			</e>
			<e lid="64">
				<a>-0.0490677,-0.998795,0</a>
				<d>0,0,1</d>
			</e>
			<e lid="65">
				<a>0.0490676,-0.998795,0</a>
				<d>0,0,1</d>
			</e>
			<e lid="66">
				<a>0.0490676,-0.998795,0</a>
				<d>0,0,1</d>
			</e>
			<e lid="67">
				<a>0.14673,-0.989177,0</a>
				<d>0,0,1</d>
			</e>
			<e lid="68">
				<a>0.14673,-0.989177,0</a>
				<d>0,0,1</d>
			</e>
			<e lid="69">
				<a>0.24298,-0.970031,0</a>
				<d>0,0,1</d>
			</e>
			<e lid="70">
				<a>0.24298,-0.970031,0</a>
				<d>0,0,1</d>
			</e>
			<e lid="71">
				<a>0.33689,-0.941544,0</a>
				<d>0,0,1</d>
			</e>
			<e lid="72">
				<a>0.33689,-0.941544,0</a>
				<d>0,0,1</d>
			</e>
			<e lid="73">
				<a>0.427555,-0.903989,0</a>
				<d>0,0,1</d>
			</e>
			<e lid="74">
				<a>0.427555,-0.903989,0</a>
				<d>0,0,1</d>
			</e>
			<e lid="75">
				<a>0.514103,-0.857729,0</a>
				<d>0,0,1</d>
			</e>
			<e lid="76">
				<a>0.514103,-0.857729,0</a>
				<d>0,0,1</d>
			</e>
			<e lid="77">
				<a>0.595699,-0.803208,0</a>
				<d>0,0,1</d>
			</e>
			<e lid="78">
				<a>0.595699,-0.803208,0</a>
				<d>0,0,1</d>
			</e>
			<e lid="79">
				<a>0.671559,-0.740951,0</a>
				<d>0,0,1</d>
			</e>
			<e lid="80">
				<a>0.671559,-0.740951,0</a>
				<d>0,0,1</d>
			</e>
			<e lid="81">
				<a>0.740951,-0.671559,0</a>
				<d>0,0,1</d>
			</e>
			<e lid="82">
				<a>0.740951,-0.671559,0</a>
				<d>0,0,1</d>
			</e>
			<e lid="83">
				<a>0.803207,-0.595699,0</a>
				<d>0,0,1</d>
			</e>
			<e lid="84">
				<a>0.803207,-0.595699,0</a>
				<d>0,0,1</d>
			</e>
			<e lid="85">
				<a>0.857729,-0.514103,0</a>
				<d>0,0,1</d>
			</e>
			<e lid="86">
				<a>0.857729,-0.514103,0</a>
				<d>0,0,1</d>
			</e>
			<e lid="87">
				<a>0.903989,-0.427555,0</a>
				<d>0,0,1</d>
			</e>
			<e lid="88">
				<a>0.903989,-0.427555,0</a>
				<d>0,0,1</d>
			</e>
			<e lid="89">
				<a>0.941544,-0.33689,0</a>
				<d>0,0,1</d>
			</e>
			<e lid="90">
				<a>0.941544,-0.33689,0</a>
				<d>0,0,1</d>
			</e>
			<e lid="91">
				<a>0.970031,-0.24298,0</a>
				<d>0,0,1</d>
			</e>
			<e lid="92">
				<a>0.970031,-0.24298,0</a>
				<d>0,0,1</d>
			</e>
			<e lid="93">
				<a>0.989176,-0.146731,0</a>
				<d>0,0,1</d>
			</e>
			<e lid="94">
				<a>0.989176,-0.146731,0</a>
				<d>0,0,1</d>
			</e>
			<e lid="95">
				<a>0.998795,-0.0490678,0</a>
				<d>0,0,1</d>
			</e>
			<e lid="96">
				<a>0.998795,-0.0490678,0</a>
				<d>0,0,1</d>
			</e>
			<e lid="97">
				<a>0.998795,0.0490676,0</a>
				<d>0,0,1</d>
			</e>
			<e lid="98">
				<a>0.998795,0.0490676,0</a>
				<d>0,0,1</d>
			</e>
			<e lid="99">
				<a>0.989177,0.14673,0</a>
				<d>0,0,1</d>
			</e>
			<e lid="100">
				<a>0.989177,0.14673,0</a>
				<d>0,0,1</d>
			</e>
			<e lid="101">
				<a>0.970031,0.24298,0</a>
				<d>0,0,1</d>
			</e>
			<e lid="102">
				<a>0.970031,0.24298,0</a>
				<d>0,0,1</d>
			</e>
			<e lid="103">
				<a>0.941544,0.33689,0</a>
				<d>0,0,1</d>
			</e>
			<e lid="104">
				<a>0.941544,0.33689,0</a>
				<d>0,0,1</d>
			</e>
			<e lid="105">
				<a>0.903989,0.427555,0</a>
				<d>0,0,1</d>
			</e>
			<e lid="106">
				<a>0.903989,0.427555,0</a>
				<d>0,0,1</d>
			</e>
			<e lid="107">
				<a>0.857729,0.514103,0</a>
				<d>0,0,1</d>
			</e>
			<e lid="108">
				<a>0.857729,0.514103,0</a>
				<d>0,0,1</d>
			</e>
			<e lid="109">
				<a>0.803208,0.595699,0</a>
				<d>0,0,1</d>
			</e>
			<e lid="110">
				<a>0.803208,0.595699,0</a>
				<d>0,0,1</d>
			</e>
			<e lid="111">
				<a>0.740951,0.671559,0</a>
				<d>0,0,1</d>
			</e>
			<e lid="112">
				<a>0.740951,0.671559,0</a>
				<d>0,0,1</d>
			</e>
			<e lid="113">
				<a>0.671559,0.740951,0</a>
				<d>0,0,1</d>
			</e>
			<e lid="114">
				<a>0.671559,0.740951,0</a>
				<d>0,0,1</d>
			</e>
			<e lid="115">
				<a>0.595699,0.803207,0</a>
				<d>0,0,1</d>
			</e>
			<e lid="116">
				<a>0.595699,0.803207,0</a>
				<d>0,0,1</d>
			</e>
			<e lid="117">
				<a>0.514103,0.857729,0</a>
				<d>0,0,1</d>
			</e>
			<e lid="118">
				<a>0.514103,0.857729,0</a>
				<d>0,0,1</d>
			</e>
			<e lid="119">
				<a>0.427555,0.903989,0</a>
				<d>0,0,1</d>
			</e>
			<e lid="120">
				<a>0.427555,0.903989,0</a>
				<d>0,0,1</d>
			</e>
			<e lid="121">
				<a>0.33689,0.941544,0</a>
				<d>0,0,1</d>
			</e>
			<e lid="122">
				<a>0.33689,0.941544,0</a>
				<d>0,0,1</d>
			</e>
			<e lid="123">
				<a>0.24298,0.970031,0</a>
				<d>0,0,1</d>
			</e>
			<e lid="124">
				<a>0.24298,0.970031,0</a>
				<d>0,0,1</d>
			</e>
			<e lid="125">
				<a>0.146731,0.989176,0</a>
				<d>0,0,1</d>
			</e>
			<e lid="126">
				<a>0.146731,0.989176,0</a>
				<d>0,0,1</d>
			</e>
			<e lid="127">
				<a>0.0490677,0.998795,0</a>
				<d>0,0,1</d>
			</e>
			<e lid="128">
				<a>0.0490677,0.998795,0</a>
				<d>0,0,1</d>
			</e>
		</ElementData>
		<ElementData var="mat_axis" elem_set="Part7">
			<e lid="1">
				<a>-0.0490677,0.998795,0</a>
				<d>0,0,1</d>
			</e>
			<e lid="2">
				<a>-0.14673,0.989177,0</a>
				<d>0,0,1</d>
			</e>
			<e lid="3">
				<a>-0.24298,0.970031,0</a>
				<d>0,0,1</d>
			</e>
			<e lid="4">
				<a>-0.33689,0.941544,0</a>
				<d>0,0,1</d>
			</e>
			<e lid="5">
				<a>-0.427555,0.903989,0</a>
				<d>0,0,1</d>
			</e>
			<e lid="6">
				<a>-0.514103,0.857729,0</a>
				<d>0,0,1</d>
			</e>
			<e lid="7">
				<a>-0.595699,0.803208,0</a>
				<d>0,0,1</d>
			</e>
			<e lid="8">
				<a>-0.671559,0.740951,0</a>
				<d>0,0,1</d>
			</e>
			<e lid="9">
				<a>-0.740951,0.671559,0</a>
				<d>0,0,1</d>
			</e>
			<e lid="10">
				<a>-0.803208,0.595699,0</a>
				<d>0,0,1</d>
			</e>
			<e lid="11">
				<a>-0.857729,0.514103,0</a>
				<d>0,0,1</d>
			</e>
			<e lid="12">
				<a>-0.903989,0.427555,0</a>
				<d>0,0,1</d>
			</e>
			<e lid="13">
				<a>-0.941544,0.33689,0</a>
				<d>0,0,1</d>
			</e>
			<e lid="14">
				<a>-0.970031,0.24298,0</a>
				<d>0,0,1</d>
			</e>
			<e lid="15">
				<a>-0.989177,0.14673,0</a>
				<d>0,0,1</d>
			</e>
			<e lid="16">
				<a>-0.998795,0.0490677,0</a>
				<d>0,0,1</d>
			</e>
			<e lid="17">
				<a>-0.998795,-0.0490676,0</a>
				<d>0,0,1</d>
			</e>
			<e lid="18">
				<a>-0.989177,-0.14673,0</a>
				<d>0,0,1</d>
			</e>
			<e lid="19">
				<a>-0.970031,-0.24298,0</a>
				<d>0,0,1</d>
			</e>
			<e lid="20">
				<a>-0.941544,-0.33689,0</a>
				<d>0,0,1</d>
			</e>
			<e lid="21">
				<a>-0.903989,-0.427555,0</a>
				<d>0,0,1</d>
			</e>
			<e lid="22">
				<a>-0.857729,-0.514103,0</a>
				<d>0,0,1</d>
			</e>
			<e lid="23">
				<a>-0.803208,-0.595699,0</a>
				<d>0,0,1</d>
			</e>
			<e lid="24">
				<a>-0.740951,-0.671559,0</a>
				<d>0,0,1</d>
			</e>
			<e lid="25">
				<a>-0.671559,-0.740951,0</a>
				<d>0,0,1</d>
			</e>
			<e lid="26">
				<a>-0.595699,-0.803208,0</a>
				<d>0,0,1</d>
			</e>
			<e lid="27">
				<a>-0.514103,-0.857729,0</a>
				<d>0,0,1</d>
			</e>
			<e lid="28">
				<a>-0.427555,-0.903989,0</a>
				<d>0,0,1</d>
			</e>
			<e lid="29">
				<a>-0.33689,-0.941544,0</a>
				<d>0,0,1</d>
			</e>
			<e lid="30">
				<a>-0.24298,-0.970031,0</a>
				<d>0,0,1</d>
			</e>
			<e lid="31">
				<a>-0.146731,-0.989177,0</a>
				<d>0,0,1</d>
			</e>
			<e lid="32">
				<a>-0.0490677,-0.998795,0</a>
				<d>0,0,1</d>
			</e>
			<e lid="33">
				<a>0.0490676,-0.998795,0</a>
				<d>0,0,1</d>
			</e>
			<e lid="34">
				<a>0.14673,-0.989177,0</a>
				<d>0,0,1</d>
			</e>
			<e lid="35">
				<a>0.24298,-0.970031,0</a>
				<d>0,0,1</d>
			</e>
			<e lid="36">
				<a>0.33689,-0.941544,0</a>
				<d>0,0,1</d>
			</e>
			<e lid="37">
				<a>0.427555,-0.903989,0</a>
				<d>0,0,1</d>
			</e>
			<e lid="38">
				<a>0.514103,-0.857729,0</a>
				<d>0,0,1</d>
			</e>
			<e lid="39">
				<a>0.595699,-0.803208,0</a>
				<d>0,0,1</d>
			</e>
			<e lid="40">
				<a>0.671559,-0.740951,0</a>
				<d>0,0,1</d>
			</e>
			<e lid="41">
				<a>0.740951,-0.671559,0</a>
				<d>0,0,1</d>
			</e>
			<e lid="42">
				<a>0.803207,-0.595699,0</a>
				<d>0,0,1</d>
			</e>
			<e lid="43">
				<a>0.857729,-0.514103,0</a>
				<d>0,0,1</d>
			</e>
			<e lid="44">
				<a>0.903989,-0.427555,0</a>
				<d>0,0,1</d>
			</e>
			<e lid="45">
				<a>0.941544,-0.33689,0</a>
				<d>0,0,1</d>
			</e>
			<e lid="46">
				<a>0.970031,-0.24298,0</a>
				<d>0,0,1</d>
			</e>
			<e lid="47">
				<a>0.989176,-0.146731,0</a>
				<d>0,0,1</d>
			</e>
			<e lid="48">
				<a>0.998795,-0.0490678,0</a>
				<d>0,0,1</d>
			</e>
			<e lid="49">
				<a>0.998795,0.0490676,0</a>
				<d>0,0,1</d>
			</e>
			<e lid="50">
				<a>0.989177,0.14673,0</a>
				<d>0,0,1</d>
			</e>
			<e lid="51">
				<a>0.970031,0.24298,0</a>
				<d>0,0,1</d>
			</e>
			<e lid="52">
				<a>0.941544,0.33689,0</a>
				<d>0,0,1</d>
			</e>
			<e lid="53">
				<a>0.903989,0.427555,0</a>
				<d>0,0,1</d>
			</e>
			<e lid="54">
				<a>0.857729,0.514103,0</a>
				<d>0,0,1</d>
			</e>
			<e lid="55">
				<a>0.803208,0.595699,0</a>
				<d>0,0,1</d>
			</e>
			<e lid="56">
				<a>0.740951,0.671559,0</a>
				<d>0,0,1</d>
			</e>
			<e lid="57">
				<a>0.671559,0.740951,0</a>
				<d>0,0,1</d>
			</e>
			<e lid="58">
				<a>0.595699,0.803207,0</a>
				<d>0,0,1</d>
			</e>
			<e lid="59">
				<a>0.514103,0.857729,0</a>
				<d>0,0,1</d>
			</e>
			<e lid="60">
				<a>0.427555,0.903989,0</a>
				<d>0,0,1</d>
			</e>
			<e lid="61">
				<a>0.33689,0.941544,0</a>
				<d>0,0,1</d>
			</e>
			<e lid="62">
				<a>0.24298,0.970031,0</a>
				<d>0,0,1</d>
			</e>
			<e lid="63">
				<a>0.146731,0.989176,0</a>
				<d>0,0,1</d>
			</e>
			<e lid="64">
				<a>0.0490677,0.998795,0</a>
				<d>0,0,1</d>
			</e>
		</ElementData>
		<ElementData var="mat_axis" elem_set="Part8">
			<e lid="1">
				<a>-0.0490677,0.998795,0</a>
				<d>0,0,1</d>
			</e>
			<e lid="2">
				<a>-0.0490677,0.998795,0</a>
				<d>0,0,1</d>
			</e>
			<e lid="3">
				<a>-0.14673,0.989177,0</a>
				<d>0,0,1</d>
			</e>
			<e lid="4">
				<a>-0.14673,0.989177,0</a>
				<d>0,0,1</d>
			</e>
			<e lid="5">
				<a>-0.24298,0.970031,0</a>
				<d>0,0,1</d>
			</e>
			<e lid="6">
				<a>-0.24298,0.970031,0</a>
				<d>0,0,1</d>
			</e>
			<e lid="7">
				<a>-0.33689,0.941544,0</a>
				<d>0,0,1</d>
			</e>
			<e lid="8">
				<a>-0.33689,0.941544,0</a>
				<d>0,0,1</d>
			</e>
			<e lid="9">
				<a>-0.427555,0.903989,0</a>
				<d>0,0,1</d>
			</e>
			<e lid="10">
				<a>-0.427555,0.903989,0</a>
				<d>0,0,1</d>
			</e>
			<e lid="11">
				<a>-0.514103,0.857729,0</a>
				<d>0,0,1</d>
			</e>
			<e lid="12">
				<a>-0.514103,0.857729,0</a>
				<d>0,0,1</d>
			</e>
			<e lid="13">
				<a>-0.595699,0.803208,0</a>
				<d>0,0,1</d>
			</e>
			<e lid="14">
				<a>-0.595699,0.803208,0</a>
				<d>0,0,1</d>
			</e>
			<e lid="15">
				<a>-0.671559,0.740951,0</a>
				<d>0,0,1</d>
			</e>
			<e lid="16">
				<a>-0.671559,0.740951,0</a>
				<d>0,0,1</d>
			</e>
			<e lid="17">
				<a>-0.740951,0.671559,0</a>
				<d>0,0,1</d>
			</e>
			<e lid="18">
				<a>-0.740951,0.671559,0</a>
				<d>0,0,1</d>
			</e>
			<e lid="19">
				<a>-0.803208,0.595699,0</a>
				<d>0,0,1</d>
			</e>
			<e lid="20">
				<a>-0.803208,0.595699,0</a>
				<d>0,0,1</d>
			</e>
			<e lid="21">
				<a>-0.857729,0.514103,0</a>
				<d>0,0,1</d>
			</e>
			<e lid="22">
				<a>-0.857729,0.514103,0</a>
				<d>0,0,1</d>
			</e>
			<e lid="23">
				<a>-0.903989,0.427555,0</a>
				<d>0,0,1</d>
			</e>
			<e lid="24">
				<a>-0.903989,0.427555,0</a>
				<d>0,0,1</d>
			</e>
			<e lid="25">
				<a>-0.941544,0.33689,0</a>
				<d>0,0,1</d>
			</e>
			<e lid="26">
				<a>-0.941544,0.33689,0</a>
				<d>0,0,1</d>
			</e>
			<e lid="27">
				<a>-0.970031,0.24298,0</a>
				<d>0,0,1</d>
			</e>
			<e lid="28">
				<a>-0.970031,0.24298,0</a>
				<d>0,0,1</d>
			</e>
			<e lid="29">
				<a>-0.989177,0.14673,0</a>
				<d>0,0,1</d>
			</e>
			<e lid="30">
				<a>-0.989177,0.14673,0</a>
				<d>0,0,1</d>
			</e>
			<e lid="31">
				<a>-0.998795,0.0490677,0</a>
				<d>0,0,1</d>
			</e>
			<e lid="32">
				<a>-0.998795,0.0490677,0</a>
				<d>0,0,1</d>
			</e>
			<e lid="33">
				<a>-0.998795,-0.0490676,0</a>
				<d>0,0,1</d>
			</e>
			<e lid="34">
				<a>-0.998795,-0.0490676,0</a>
				<d>0,0,1</d>
			</e>
			<e lid="35">
				<a>-0.989177,-0.14673,0</a>
				<d>0,0,1</d>
			</e>
			<e lid="36">
				<a>-0.989177,-0.14673,0</a>
				<d>0,0,1</d>
			</e>
			<e lid="37">
				<a>-0.970031,-0.24298,0</a>
				<d>0,0,1</d>
			</e>
			<e lid="38">
				<a>-0.970031,-0.24298,0</a>
				<d>0,0,1</d>
			</e>
			<e lid="39">
				<a>-0.941544,-0.33689,0</a>
				<d>0,0,1</d>
			</e>
			<e lid="40">
				<a>-0.941544,-0.33689,0</a>
				<d>0,0,1</d>
			</e>
			<e lid="41">
				<a>-0.903989,-0.427555,0</a>
				<d>0,0,1</d>
			</e>
			<e lid="42">
				<a>-0.903989,-0.427555,0</a>
				<d>0,0,1</d>
			</e>
			<e lid="43">
				<a>-0.857729,-0.514103,0</a>
				<d>0,0,1</d>
			</e>
			<e lid="44">
				<a>-0.857729,-0.514103,0</a>
				<d>0,0,1</d>
			</e>
			<e lid="45">
				<a>-0.803208,-0.595699,0</a>
				<d>0,0,1</d>
			</e>
			<e lid="46">
				<a>-0.803208,-0.595699,0</a>
				<d>0,0,1</d>
			</e>
			<e lid="47">
				<a>-0.740951,-0.671559,0</a>
				<d>0,0,1</d>
			</e>
			<e lid="48">
				<a>-0.740951,-0.671559,0</a>
				<d>0,0,1</d>
			</e>
			<e lid="49">
				<a>-0.671559,-0.740951,0</a>
				<d>0,0,1</d>
			</e>
			<e lid="50">
				<a>-0.671559,-0.740951,0</a>
				<d>0,0,1</d>
			</e>
			<e lid="51">
				<a>-0.595699,-0.803208,0</a>
				<d>0,0,1</d>
			</e>
			<e lid="52">
				<a>-0.595699,-0.803208,0</a>
				<d>0,0,1</d>
			</e>
			<e lid="53">
				<a>-0.514103,-0.857729,0</a>
				<d>0,0,1</d>
			</e>
			<e lid="54">
				<a>-0.514103,-0.857729,0</a>
				<d>0,0,1</d>
			</e>
			<e lid="55">
				<a>-0.427555,-0.903989,0</a>
				<d>0,0,1</d>
			</e>
			<e lid="56">
				<a>-0.427555,-0.903989,0</a>
				<d>0,0,1</d>
			</e>
			<e lid="57">
				<a>-0.33689,-0.941544,0</a>
				<d>0,0,1</d>
			</e>
			<e lid="58">
				<a>-0.33689,-0.941544,0</a>
				<d>0,0,1</d>
			</e>
			<e lid="59">
				<a>-0.24298,-0.970031,0</a>
				<d>0,0,1</d>
			</e>
			<e lid="60">
				<a>-0.24298,-0.970031,0</a>
				<d>0,0,1</d>
			</e>
			<e lid="61">
				<a>-0.146731,-0.989177,0</a>
				<d>0,0,1</d>
			</e>
			<e lid="62">
				<a>-0.146731,-0.989177,0</a>
				<d>0,0,1</d>
			</e>
			<e lid="63">
				<a>-0.0490677,-0.998795,0</a>
				<d>0,0,1</d>
			</e>
			<e lid="64">
				<a>-0.0490677,-0.998795,0</a>
				<d>0,0,1</d>
			</e>
			<e lid="65">
				<a>0.0490676,-0.998795,0</a>
				<d>0,0,1</d>
			</e>
			<e lid="66">
				<a>0.0490676,-0.998795,0</a>
				<d>0,0,1</d>
			</e>
			<e lid="67">
				<a>0.14673,-0.989177,0</a>
				<d>0,0,1</d>
			</e>
			<e lid="68">
				<a>0.14673,-0.989177,0</a>
				<d>0,0,1</d>
			</e>
			<e lid="69">
				<a>0.24298,-0.970031,0</a>
				<d>0,0,1</d>
			</e>
			<e lid="70">
				<a>0.24298,-0.970031,0</a>
				<d>0,0,1</d>
			</e>
			<e lid="71">
				<a>0.33689,-0.941544,0</a>
				<d>0,0,1</d>
			</e>
			<e lid="72">
				<a>0.33689,-0.941544,0</a>
				<d>0,0,1</d>
			</e>
			<e lid="73">
				<a>0.427555,-0.903989,0</a>
				<d>0,0,1</d>
			</e>
			<e lid="74">
				<a>0.427555,-0.903989,0</a>
				<d>0,0,1</d>
			</e>
			<e lid="75">
				<a>0.514103,-0.857729,0</a>
				<d>0,0,1</d>
			</e>
			<e lid="76">
				<a>0.514103,-0.857729,0</a>
				<d>0,0,1</d>
			</e>
			<e lid="77">
				<a>0.595699,-0.803208,0</a>
				<d>0,0,1</d>
			</e>
			<e lid="78">
				<a>0.595699,-0.803208,0</a>
				<d>0,0,1</d>
			</e>
			<e lid="79">
				<a>0.671559,-0.740951,0</a>
				<d>0,0,1</d>
			</e>
			<e lid="80">
				<a>0.671559,-0.740951,0</a>
				<d>0,0,1</d>
			</e>
			<e lid="81">
				<a>0.740951,-0.671559,0</a>
				<d>0,0,1</d>
			</e>
			<e lid="82">
				<a>0.740951,-0.671559,0</a>
				<d>0,0,1</d>
			</e>
			<e lid="83">
				<a>0.803207,-0.595699,0</a>
				<d>0,0,1</d>
			</e>
			<e lid="84">
				<a>0.803207,-0.595699,0</a>
				<d>0,0,1</d>
			</e>
			<e lid="85">
				<a>0.857729,-0.514103,0</a>
				<d>0,0,1</d>
			</e>
			<e lid="86">
				<a>0.857729,-0.514103,0</a>
				<d>0,0,1</d>
			</e>
			<e lid="87">
				<a>0.903989,-0.427555,0</a>
				<d>0,0,1</d>
			</e>
			<e lid="88">
				<a>0.903989,-0.427555,0</a>
				<d>0,0,1</d>
			</e>
			<e lid="89">
				<a>0.941544,-0.33689,0</a>
				<d>0,0,1</d>
			</e>
			<e lid="90">
				<a>0.941544,-0.33689,0</a>
				<d>0,0,1</d>
			</e>
			<e lid="91">
				<a>0.970031,-0.24298,0</a>
				<d>0,0,1</d>
			</e>
			<e lid="92">
				<a>0.970031,-0.24298,0</a>
				<d>0,0,1</d>
			</e>
			<e lid="93">
				<a>0.989176,-0.146731,0</a>
				<d>0,0,1</d>
			</e>
			<e lid="94">
				<a>0.989176,-0.146731,0</a>
				<d>0,0,1</d>
			</e>
			<e lid="95">
				<a>0.998795,-0.0490678,0</a>
				<d>0,0,1</d>
			</e>
			<e lid="96">
				<a>0.998795,-0.0490678,0</a>
				<d>0,0,1</d>
			</e>
			<e lid="97">
				<a>0.998795,0.0490676,0</a>
				<d>0,0,1</d>
			</e>
			<e lid="98">
				<a>0.998795,0.0490676,0</a>
				<d>0,0,1</d>
			</e>
			<e lid="99">
				<a>0.989177,0.14673,0</a>
				<d>0,0,1</d>
			</e>
			<e lid="100">
				<a>0.989177,0.14673,0</a>
				<d>0,0,1</d>
			</e>
			<e lid="101">
				<a>0.970031,0.24298,0</a>
				<d>0,0,1</d>
			</e>
			<e lid="102">
				<a>0.970031,0.24298,0</a>
				<d>0,0,1</d>
			</e>
			<e lid="103">
				<a>0.941544,0.33689,0</a>
				<d>0,0,1</d>
			</e>
			<e lid="104">
				<a>0.941544,0.33689,0</a>
				<d>0,0,1</d>
			</e>
			<e lid="105">
				<a>0.903989,0.427555,0</a>
				<d>0,0,1</d>
			</e>
			<e lid="106">
				<a>0.903989,0.427555,0</a>
				<d>0,0,1</d>
			</e>
			<e lid="107">
				<a>0.857729,0.514103,0</a>
				<d>0,0,1</d>
			</e>
			<e lid="108">
				<a>0.857729,0.514103,0</a>
				<d>0,0,1</d>
			</e>
			<e lid="109">
				<a>0.803208,0.595699,0</a>
				<d>0,0,1</d>
			</e>
			<e lid="110">
				<a>0.803208,0.595699,0</a>
				<d>0,0,1</d>
			</e>
			<e lid="111">
				<a>0.740951,0.671559,0</a>
				<d>0,0,1</d>
			</e>
			<e lid="112">
				<a>0.740951,0.671559,0</a>
				<d>0,0,1</d>
			</e>
			<e lid="113">
				<a>0.671559,0.740951,0</a>
				<d>0,0,1</d>
			</e>
			<e lid="114">
				<a>0.671559,0.740951,0</a>
				<d>0,0,1</d>
			</e>
			<e lid="115">
				<a>0.595699,0.803207,0</a>
				<d>0,0,1</d>
			</e>
			<e lid="116">
				<a>0.595699,0.803207,0</a>
				<d>0,0,1</d>
			</e>
			<e lid="117">
				<a>0.514103,0.857729,0</a>
				<d>0,0,1</d>
			</e>
			<e lid="118">
				<a>0.514103,0.857729,0</a>
				<d>0,0,1</d>
			</e>
			<e lid="119">
				<a>0.427555,0.903989,0</a>
				<d>0,0,1</d>
			</e>
			<e lid="120">
				<a>0.427555,0.903989,0</a>
				<d>0,0,1</d>
			</e>
			<e lid="121">
				<a>0.33689,0.941544,0</a>
				<d>0,0,1</d>
			</e>
			<e lid="122">
				<a>0.33689,0.941544,0</a>
				<d>0,0,1</d>
			</e>
			<e lid="123">
				<a>0.24298,0.970031,0</a>
				<d>0,0,1</d>
			</e>
			<e lid="124">
				<a>0.24298,0.970031,0</a>
				<d>0,0,1</d>
			</e>
			<e lid="125">
				<a>0.146731,0.989176,0</a>
				<d>0,0,1</d>
			</e>
			<e lid="126">
				<a>0.146731,0.989176,0</a>
				<d>0,0,1</d>
			</e>
			<e lid="127">
				<a>0.0490677,0.998795,0</a>
				<d>0,0,1</d>
			</e>
			<e lid="128">
				<a>0.0490677,0.998795,0</a>
				<d>0,0,1</d>
			</e>
		</ElementData>
	</MeshData>
	<Boundary>
		<bc name="FixedDisplacement1" type="fix" node_set="FixedDisplacement1">
			<dofs>x</dofs>
		</bc>
		<bc name="FixedDisplacement2" type="fix" node_set="FixedDisplacement2">
			<dofs>y</dofs>
		</bc>
		<bc name="FixedDisplacement3" type="fix" node_set="@surface:FixedDisplacement3">
			<dofs>z</dofs>
		</bc>
		<bc name="PrescribedEffectiveFluidPressure1" type="prescribe" node_set="@surface:PrescribedEffectiveFluidPressure1">
			<dof>p</dof>
			<scale lc="3">1</scale>
			<relative>0</relative>
		</bc>
		<bc name="PrescribedEffectiveConcentration1" type="prescribe" node_set="@surface:PrescribedEffectiveConcentration1">
			<dof>c1</dof>
			<scale lc="4">150</scale>
			<relative>0</relative>
		</bc>
		<bc name="PrescribedEffectiveConcentration2" type="prescribe" node_set="@surface:PrescribedEffectiveConcentration2">
			<dof>c2</dof>
			<scale lc="5">150</scale>
			<relative>0</relative>
		</bc>
	</Boundary>
	<Loads>
		<surface_load name="MixtureNormalTraction1" type="normal_traction" surface="MixtureNormalTraction1">
			<traction lc="6">-0.013</traction>
			<linear>0</linear>
			<effective>0</effective>
		</surface_load>
	</Loads>
	<Initial>
		<ic type="init_dof" node_set="InitialFluidPressure1">
			<dof>p</dof>
			<value>-0.7432716</value>
		</ic>
		<ic type="init_dof" node_set="InitialEffectiveConcentration1">
			<dof>c1</dof>
			<value>150</value>
		</ic>
		<ic type="init_dof" node_set="InitialEffectiveConcentration2">
			<dof>c2</dof>
			<value>150</value>
		</ic>
	</Initial>
	<LoadData>
		<load_controller id="1" type="loadcurve">
			<interpolate>SMOOTH</interpolate>
			<points>
				<point>0,0</point>
				<point>1,1</point>
			</points>
		</load_controller>
		<load_controller id="2" type="loadcurve">
			<interpolate>SMOOTH</interpolate>
			<points>
				<point>0,0</point>
				<point>1,1</point>
			</points>
		</load_controller>
		<load_controller id="3" type="loadcurve">
			<interpolate>LINEAR</interpolate>
			<points>
				<point>-0.1,0</point>
				<point>0,-0.7432716</point>
				<point>1,-0.7432716</point>
				<point>2,-0.7302716</point>
			</points>
		</load_controller>
		<load_controller id="4" type="loadcurve">
			<interpolate>STEP</interpolate>
			<points>
				<point>0,0</point>
				<point>1,1</point>
			</points>
		</load_controller>
		<load_controller id="5" type="loadcurve">
			<interpolate>STEP</interpolate>
			<points>
				<point>0,0</point>
				<point>1,1</point>
			</points>
		</load_controller>
		<load_controller id="6" type="loadcurve">
			<interpolate>LINEAR</interpolate>
			<points>
				<point>0,0</point>
				<point>1,0</point>
				<point>2,1</point>
			</points>
		</load_controller>
	</LoadData>
	<Output>
		<plotfile type="febio">
			<var type="displacement"/>
			<var type="stress"/>
			<var type="effective fluid pressure"/>
			<var type="fluid pressure"/>
			<var type="fluid flux"/>
			<var type="porosity"/>
			<var type="solid stress"/>
			<var type="effective solute concentration"/>
			<var type="fixed charge density"/>
			<var type="referential fixed charge density"/>
			<var type="solute concentration"/>
			<var type="solute flux"/>
			<var type="relative volume"/>
		</plotfile>
	</Output>
</febio_spec>
