<?xml version="1.0" encoding="ISO-8859-1"?>
<!--
Problem Description:
	A poroelastic block of 10 elements is compressed in the zdirection by 0.1 units
	in time t=100, then allowed to relax to time t=1000.
	This is the same problem as CCsrlxFit.feb in the Biphasic Examples on the forums.
Main Features:
	Poroelasticity
Secondary Features:
	Nonuniform element thickness in zdirection
Materials:
	NeoHookean
	Poroelastic
Degrees of Freedom: 157
Results:
	Steps Completed: 53
	Equilibrium Iterations: 119
	Right Hand Evaluations: 172
	Siffness Reformations: 119
	Other:
		The bottom element has a thickness of 0.3022 at time t=1000.
Comments:
	
-->
<febio_spec version="3.0">
	<Module type="biphasic"/>
	<Control>
		<analysis>TRANSIENT</analysis>
		<time_steps>12000</time_steps>
		<step_size>0.1</step_size>
		<solver>
			<max_refs>15</max_refs>
			<max_ups>0</max_ups>
			<diverge_reform>1</diverge_reform>
			<reform_each_time_step>1</reform_each_time_step>
			<dtol>0.001</dtol>
			<etol>0.01</etol>
			<rtol>0</rtol>
			<ptol>0.01</ptol>
			<lstol>0.9</lstol>
			<min_residual>1e-20</min_residual>
			<qnmethod>BFGS</qnmethod>
			<mixed_formulation>default</mixed_formulation>
			<symmetric_stiffness>0</symmetric_stiffness>
		</solver>
		<time_stepper>
			<dtmin>0.01</dtmin>
			<dtmax lc="1"></dtmax>
			<max_retries>5</max_retries>
			<opt_iter>10</opt_iter>
		</time_stepper>
	</Control>
	<Globals>
		<Constants>
			<T>0</T>
			<R>0</R>
			<Fc>0</Fc>
		</Constants>
	</Globals>
	<Material>
		<material id="1" name="Biphasic" type="biphasic">
			<phi0>0.2</phi0>
			<fluid_density>1</fluid_density>
			<solid type="Holmes-Mow">
				<density>1</density>
				<E>2</E>
				<v>0</v>
				<beta>0.5</beta>
			</solid>
			<permeability type="perm-const-iso">
				<perm>0.003</perm>
			</permeability>
		</material>
		<material id="2" name="Indentor" type="rigid body">
			<density>1</density>
			<center_of_mass>0,0,1</center_of_mass>
		</material>
	</Material>
	<Mesh>
		<Nodes name="Object01">
			<node id="1">-0.5,-0.5,0</node>
			<node id="2">-0.5,-0.5,0.20233274</node>
			<node id="3">-0.5,-0.5,0.36419893</node>
			<node id="4">-0.5,-0.5,0.49369188</node>
			<node id="5">-0.5,-0.5,0.59728624</node>
			<node id="6">-0.5,-0.5,0.68016173</node>
			<node id="7">-0.5,-0.5,0.74646212</node>
			<node id="8">-0.5,-0.5,0.79950244</node>
			<node id="9">-0.5,-0.5,0.84193469</node>
			<node id="10">-0.5,-0.5,0.87588049</node>
			<node id="11">-0.5,-0.5,0.90303713</node>
			<node id="12">-0.5,-0.5,0.92476244</node>
			<node id="13">-0.5,-0.5,0.94214269</node>
			<node id="14">-0.5,-0.5,0.95604689</node>
			<node id="15">-0.5,-0.5,0.96717025</node>
			<node id="16">-0.5,-0.5,0.97606894</node>
			<node id="17">-0.5,-0.5,0.98318789</node>
			<node id="18">-0.5,-0.5,0.98888305</node>
			<node id="19">-0.5,-0.5,0.99343918</node>
			<node id="20">-0.5,-0.5,0.99708408</node>
<!-- ... 64 like lines cut -->
		</Nodes>
		<Elements type="hex8" name="Part1">
			<elem id="1">1,43,64,22,2,44,65,23</elem>
			<elem id="2">2,44,65,23,3,45,66,24</elem>
			<elem id="3">3,45,66,24,4,46,67,25</elem>
			<elem id="4">4,46,67,25,5,47,68,26</elem>
			<elem id="5">5,47,68,26,6,48,69,27</elem>
			<elem id="6">6,48,69,27,7,49,70,28</elem>
			<elem id="7">7,49,70,28,8,50,71,29</elem>
			<elem id="8">8,50,71,29,9,51,72,30</elem>
			<elem id="9">9,51,72,30,10,52,73,31</elem>
			<elem id="10">10,52,73,31,11,53,74,32</elem>
			<elem id="11">11,53,74,32,12,54,75,33</elem>
			<elem id="12">12,54,75,33,13,55,76,34</elem>
			<elem id="13">13,55,76,34,14,56,77,35</elem>
			<elem id="14">14,56,77,35,15,57,78,36</elem>
			<elem id="15">15,57,78,36,16,58,79,37</elem>
			<elem id="16">16,58,79,37,17,59,80,38</elem>
			<elem id="17">17,59,80,38,18,60,81,39</elem>
			<elem id="18">18,60,81,39,19,61,82,40</elem>
			<elem id="19">19,61,82,40,20,62,83,41</elem>
			<elem id="20">20,62,83,41,21,63,84,42</elem>
		</Elements>
		<NodeSet name="FixedDisplacement01">
			<n id="1"/>
			<n id="2"/>
			<n id="3"/>
			<n id="4"/>
			<n id="5"/>
			<n id="6"/>
			<n id="7"/>
			<n id="8"/>
			<n id="9"/>
			<n id="10"/>
			<n id="11"/>
			<n id="12"/>
			<n id="13"/>
			<n id="14"/>
			<n id="15"/>
			<n id="16"/>
			<n id="17"/>
			<n id="18"/>
			<n id="19"/>
			<n id="20"/>
<!-- ... 64 like lines cut -->
		</NodeSet>
		<NodeSet name="FixedDisplacement02">
			<n id="1"/>
			<n id="2"/>
			<n id="3"/>
			<n id="4"/>
			<n id="5"/>
			<n id="6"/>
			<n id="7"/>
			<n id="8"/>
			<n id="9"/>
			<n id="10"/>
			<n id="11"/>
			<n id="12"/>
			<n id="13"/>
			<n id="14"/>
			<n id="15"/>
			<n id="16"/>
			<n id="17"/>
			<n id="18"/>
			<n id="19"/>
			<n id="20"/>
<!-- ... 64 like lines cut -->
		</NodeSet>
		<NodeSet name="FixedDisplacement03">
			<n id="1"/>
			<n id="22"/>
			<n id="43"/>
			<n id="64"/>
		</NodeSet>
		<NodeSet name="FixedFluidPressure01">
			<n id="21"/>
			<n id="42"/>
			<n id="63"/>
			<n id="84"/>
		</NodeSet>
		<NodeSet name="RigidNodeset 1">
			<n id="21"/>
			<n id="42"/>
			<n id="63"/>
			<n id="84"/>
		</NodeSet>
	</Mesh>
	<MeshDomains>
		<SolidDomain name="Part1" mat="Biphasic"/>
	</MeshDomains>
	<Boundary>
		<bc name="FixedDisplacement01" type="fix" node_set="FixedDisplacement01">
			<dofs>x</dofs>
		</bc>
		<bc name="FixedDisplacement02" type="fix" node_set="FixedDisplacement02">
			<dofs>y</dofs>
		</bc>
		<bc name="FixedDisplacement03" type="fix" node_set="FixedDisplacement03">
			<dofs>z</dofs>
		</bc>
		<bc name="FixedFluidPressure01" type="fix" node_set="FixedFluidPressure01">
			<dofs>p</dofs>
		</bc>
		<bc name="RigidInterface02" type="rigid" node_set="RigidNodeset 1">
			<rb>2</rb>
		</bc>
	</Boundary>
	<Rigid>
		<rigid_constraint name="RigidFixed02" type="fix">
			<rb>2</rb>
			<dofs>Rx,Ry,Ru,Rv,Rw</dofs>
		</rigid_constraint>
		<rigid_constraint name="RigidDisplacement02" type="prescribe">
			<rb>2</rb>
			<dof>Rz</dof>
			<value lc="2">1</value>
			<relative>0</relative>
		</rigid_constraint>
	</Rigid>
	<Contact>
	</Contact>
	<LoadData>
		<load_controller id="1" type="loadcurve">
			<interpolate>STEP</interpolate>
			<points>
				<point>0,0</point>
				<point>200,10</point>
				<point>400,20</point>
				<point>1000,100</point>
			</points>
		</load_controller>
		<load_controller id="2" type="loadcurve">
			<interpolate>SMOOTH</interpolate>
			<points>
				<point>0,0</point>
				<point>200,-0.2</point>
			</points>
		</load_controller>
	</LoadData>
	<Output>
		<plotfile type="febio">
			<var type="displacement"/>
			<var type="stress"/>
			<var type="effective fluid pressure"/>
			<var type="fluid flux"/>
		</plotfile>
		<logfile>
			<rigid_body_data data="Fz"/>
		</logfile>
	</Output>
</febio_spec>
