<?xml version="1.0" encoding="ISO-8859-1"?>
<febio_spec version="3.0">
	<Module type="solid"/>
	<Control>
		<analysis>STATIC</analysis>
		<time_steps>3622</time_steps>
		<step_size>0.2</step_size>
		<solver>
			<max_refs>25</max_refs>
			<max_ups>0</max_ups>
			<diverge_reform>1</diverge_reform>
			<reform_each_time_step>1</reform_each_time_step>
			<dtol>0.001</dtol>
			<etol>0.01</etol>
			<rtol>0</rtol>
			<lstol>0.9</lstol>
			<min_residual>1e-20</min_residual>
			<qnmethod>BROYDEN</qnmethod>
			<rhoi>0</rhoi>
			<symmetric_stiffness>0</symmetric_stiffness>
		</solver>
		<time_stepper>
			<dtmin>0.02</dtmin>
			<dtmax lc="1"></dtmax>
			<max_retries>5</max_retries>
			<opt_iter>25</opt_iter>
		</time_stepper>
	</Control>
	<Globals>
		<Constants>
			<T>0</T>
			<R>0</R>
			<Fc>0</Fc>
		</Constants>
	</Globals>
	<Material>
		<material id="1" name="platen" type="rigid body">
			<density>1</density>
			<center_of_mass>0,0,0</center_of_mass>
		</material>
		<material id="2" name="tissue" type="uncoupled reactive viscoelastic">
			<density>1</density>
			<kinetics>1</kinetics>
			<trigger>1</trigger>
			<wmin>0</wmin>
			<emin>0.0005</emin>
			<k>1e7</k>
			<elastic type="Mooney-Rivlin">
				<c1>704.1</c1>
				<c2>0</c2>
			</elastic>
			<bond type="Mooney-Rivlin">
				<c1>3931</c1>
				<c2>0</c2>
			</bond>
			<relaxation type="relaxation-Malkin-dist-user">
			  <tau1 type="point">
			    <interpolate>LINEAR</interpolate>
			    <points>
			      <point>0.0,0.03709</point>
			      <point>0.063,0.37</point>
			      <point>0.130,0.03709</point>
			    </points>
			  </tau1>
			  <tau2 type="point">
			    <interpolate>LINEAR</interpolate>
			    <points>
			      <point>0.0,1438</point>
			      <point>0.063,250</point>
			      <point>0.130,180</point>
			    </points>
			  </tau2>
			  <beta type="math">1</beta>
			</relaxation>
			<recruitment type="CDF user">
			  <cdf type="point">
			    <interpolate>LINEAR</interpolate>
			    <points>
			      <point>0.0,        1.0</point>
			      <point>0.063,  1.0</point>
			      <point>0.130,1.8</point>
			    </points>
			  </cdf>
			</recruitment>
		</material>
	</Material>
	<Mesh>
		<Nodes name="Object01">
			<node id="1">-0.5,-0.5,0</node>
			<node id="2">0.5,-0.5,0</node>
			<node id="3">0.5,0.5,0</node>
			<node id="4">-0.5,0.5,0</node>
			<node id="5">-0.5,-0.5,1</node>
			<node id="6">0.5,-0.5,1</node>
			<node id="7">0.5,0.5,1</node>
			<node id="8">-0.5,0.5,1</node>
			<node id="9">1,-1,1.00000005</node>
			<node id="10">-1,-1,0.999999946</node>
			<node id="11">-1,1,0.999999946</node>
			<node id="12">1,1,1.00000005</node>
		</Nodes>
		<Elements type="hex8" name="Part1">
			<elem id="1">1,2,3,4,5,6,7,8</elem>
		</Elements>
		<Elements type="quad4" name="Part2">
			<elem id="2">9,10,11,12</elem>
		</Elements>
		<Surface name="FixedDisplacement1">
			<quad4 id="1">4,1,5,8</quad4>
		</Surface>
		<Surface name="FixedDisplacement2">
			<quad4 id="1">1,2,6,5</quad4>
		</Surface>
		<Surface name="FixedDisplacement3">
			<quad4 id="1">4,3,2,1</quad4>
		</Surface>
		<Surface name="SlidingElasticContact1_primary">
			<quad4 id="1">5,6,7,8</quad4>
		</Surface>
		<Surface name="SlidingElasticContact1_secondary">
			<quad4 id="1">9,10,11,12</quad4>
		</Surface>
		<SurfacePair name="SlidingElasticContact1">
			<primary>SlidingElasticContact1_primary</primary>
			<secondary>SlidingElasticContact1_secondary</secondary>
		</SurfacePair>
	</Mesh>
	<MeshDomains>
		<SolidDomain name="Part1" mat="tissue"/>
		<ShellDomain name="Part2" mat="platen">
			<shell_normal_nodal>1</shell_normal_nodal>
		</ShellDomain>
	</MeshDomains>
	<MeshData>
		<ElementData var="shell thickness" elem_set="Part2">
			<e lid="1">0.01,0.01,0.01,0.01</e>
		</ElementData>
	</MeshData>
	<Boundary>
		<bc name="FixedDisplacement1" type="fix" node_set="@surface:FixedDisplacement1">
			<dofs>x</dofs>
		</bc>
		<bc name="FixedDisplacement2" type="fix" node_set="@surface:FixedDisplacement2">
			<dofs>y</dofs>
		</bc>
		<bc name="FixedDisplacement3" type="fix" node_set="@surface:FixedDisplacement3">
			<dofs>z</dofs>
		</bc>
	</Boundary>
	<Rigid>
		<rigid_constraint name="fixed platen dofs" type="fix">
			<rb>1</rb>
			<dofs>Rx,Ry,Ru,Rv,Rw</dofs>
		</rigid_constraint>
		<rigid_constraint name="platen displacement" type="prescribe">
			<rb>1</rb>
			<dof>Rz</dof>
			<value lc="2">-1</value>
			<relative>0</relative>
		</rigid_constraint>
	</Rigid>
	<Contact>
		<contact type="sliding-elastic" name="SlidingElasticContact1" surface_pair="SlidingElasticContact1">
			<laugon>0</laugon>
			<tolerance>0.2</tolerance>
			<gaptol>0</gaptol>
			<penalty>1000000</penalty>
			<auto_penalty>1</auto_penalty>
			<two_pass>0</two_pass>
			<search_tol>0.01</search_tol>
			<symmetric_stiffness>0</symmetric_stiffness>
			<search_radius>1</search_radius>
			<seg_up>0</seg_up>
			<tension>1</tension>
			<minaug>0</minaug>
			<maxaug>10</maxaug>
			<fric_coeff>0</fric_coeff>
			<smooth_aug>0</smooth_aug>
			<node_reloc>0</node_reloc>
			<flip_primary>0</flip_primary>
			<flip_secondary>0</flip_secondary>
			<knmult>0</knmult>
			<update_penalty>0</update_penalty>
			<shell_bottom_primary>0</shell_bottom_primary>
			<shell_bottom_secondary>0</shell_bottom_secondary>
		</contact>
	</Contact>
	<LoadData>
		<load_controller id="1" type="loadcurve">
			<interpolate>STEP</interpolate>
			<points>
				<point>0,0</point>
				<point>2.44,0.2</point>
				<point>362.32,20</point>
				<point>364.66,0.2</point>
				<point>724.66,20</point>
				<point>727.02,0.2</point>
				<point>1086.98,20</point>
				<point>1089.30,0.20</point>
				<point>1449.32,20</point>
				<point>1451.66,0.20</point>
				<point>1811.90,20</point>
			</points>
		</load_controller>
		<load_controller id="2" type="loadcurve">
			<interpolate>LINEAR</interpolate>
			<points>
				<point>0,0</point>
				<point>2.44,0.05</point>
				<point>362.32,0.05</point>
				<point>364.66,0.10</point>
				<point>724.66,0.10</point>
				<point>727.02,0.15</point>
				<point>1086.98,0.15</point>
				<point>1089.30,0.20</point>
				<point>1449.32,0.20</point>
				<point>1451.66,0.25</point>
				<point>1811.90,0.25</point>
			</points>
		</load_controller>
	</LoadData>
	<Output>
		<plotfile type="febio">
			<var type="contact area"/>
			<var type="contact force"/>
			<var type="contact gap"/>
			<var type="contact pressure"/>
			<var type="displacement"/>
			<var type="left Hencky"/>
			<var type="relative volume"/>
			<var type="rigid force"/>
			<var type="rigid position"/>
			<var type="RVE generations"/>
			<var type="RVE reforming bonds"/>
			<var type="RVE strain"/>
			<var type="stress"/>
		</plotfile>
	</Output>
</febio_spec>
