<?xml version="1.0" encoding="ISO-8859-1"?>
<!--
Example of reactive plasticity analysis with user-specified flow curve.
This problem replicates the Abaqus/CAE plasticity tutorial appearing on
YouTube (https://www.youtube.com/watch?v=d4T0MAz3nc0).
Plane strain analysis of plastic yielding of steel using US customary units.
Tube with inner radius 1.0 in and outer radius 1.75 in, subjected to internal 
pressure up to 30 000 psi. This model uses a user-specified plasticity flow curve. 
Contrary to Abaqus, FEBio flow curve uses total true strain versus true
stress (instead of true plastic strain versus true stress). True strain
is logarithmic (a.k.a. Hencky) strain, which reduces to infinitesimal
strain tensor in small strain analyses. First data point in load curve must
represent the yield point, with stress = Young's modulus x strain
-->
<febio_spec version="3.0">
	<Module type="solid"/>
	<Control>
		<analysis>STATIC</analysis>
		<time_steps>10</time_steps>
		<step_size>0.1</step_size>
		<solver>
			<max_refs>15</max_refs>
			<max_ups>10</max_ups>
			<diverge_reform>1</diverge_reform>
			<reform_each_time_step>1</reform_each_time_step>
			<dtol>0.001</dtol>
			<etol>0.01</etol>
			<rtol>0</rtol>
			<lstol>0.9</lstol>
			<min_residual>1e-20</min_residual>
			<qnmethod>BROYDEN</qnmethod>
			<rhoi>0</rhoi>
			<symmetric_stiffness>0</symmetric_stiffness>
		</solver>
		<time_stepper>
			<dtmin>0.01</dtmin>
			<dtmax>0.1</dtmax>
			<max_retries>5</max_retries>
			<opt_iter>10</opt_iter>
		</time_stepper>
	</Control>
	<Globals>
		<Constants>
			<T>0</T>
			<R>0</R>
			<Fc>0</Fc>
		</Constants>
	</Globals>
	<Material>
		<material id="1" name="Steel" type="reactive plasticity">
			<density>1</density>
			<isochoric>1</isochoric>
			<elastic type="natural neo-Hookean">
				<E>29911000</E>
				<v>0.3</v>
			</elastic>
			<yield_criterion type="DC von Mises stress"/>
			<flow_curve type="PFC user">
			  <plastic_response type="point">
			    <interpolate>SMOOTH</interpolate>
			    <points>
			      <point> 0.002, 59822 </point>
			      <point> 0.002841, 64450 </point>
			      <point> 0.00469, 68500 </point>
			      <point> 0.00953, 72000 </point>
			      <point> 0.0193, 75000 </point>
			    </points>
			  </plastic_response>
			</flow_curve>
		</material>
	</Material>
	<Mesh>
		<Nodes name="Object1">
			<node id="1">1.75,0,0</node>
			<node id="2">4.6891069e-08,1.75,0</node>
			<node id="3">2.67948966e-08,1,0</node>
			<node id="4">1,0,0</node>
			<node id="5">1.75,0,1</node>
			<node id="6">4.6891069e-08,1.75,1</node>
			<node id="7">2.67948966e-08,1,1</node>
			<node id="8">1,0,1</node>
			<node id="9">1.7455412,0.124843568,0</node>
			<node id="10">1.73218752,0.249050963,0</node>
			<node id="11">1.71000702,0.37198925,0</node>
			<node id="12">1.67911271,0.493031966,0</node>
			<node id="13">1.63966202,0.611562304,0</node>
			<node id="14">1.591856,0.726976261,0</node>
			<node id="15">1.53593824,0.838685714,0</node>
			<node id="16">1.47219369,0.946121416,0</node>
			<node id="17">1.40094718,1.0487359,0</node>
			<node id="18">1.32256177,1.14600627,0</node>
			<node id="19">1.23743688,1.23743685,0</node>
			<node id="20">1.1460063,1.32256174,0</node>
<!-- ... 716 like lines cut -->
		</Nodes>
		<Elements type="hex8" name="Part1">
			<elem id="1">1,9,422,134,5,50,443,135</elem>
			<elem id="2">9,10,423,422,50,49,444,443</elem>
			<elem id="3">10,11,424,423,49,48,445,444</elem>
			<elem id="4">11,12,425,424,48,47,446,445</elem>
			<elem id="5">12,13,426,425,47,46,447,446</elem>
			<elem id="6">13,14,427,426,46,45,448,447</elem>
			<elem id="7">14,15,428,427,45,44,449,448</elem>
			<elem id="8">15,16,429,428,44,43,450,449</elem>
			<elem id="9">16,17,430,429,43,42,451,450</elem>
			<elem id="10">17,18,431,430,42,41,452,451</elem>
			<elem id="11">18,19,432,431,41,40,453,452</elem>
			<elem id="12">19,20,433,432,40,39,454,453</elem>
			<elem id="13">20,21,434,433,39,38,455,454</elem>
			<elem id="14">21,22,435,434,38,37,456,455</elem>
			<elem id="15">22,23,436,435,37,36,457,456</elem>
			<elem id="16">23,24,437,436,36,35,458,457</elem>
			<elem id="17">24,25,438,437,35,34,459,458</elem>
			<elem id="18">25,26,439,438,34,33,460,459</elem>
			<elem id="19">26,27,440,439,33,32,461,460</elem>
			<elem id="20">27,28,441,440,32,31,462,461</elem>
<!-- ... 310 like lines cut -->
		</Elements>
		<Surface name="FixedDisplacement1">
			<quad4 id="1">2,51,78,6</quad4>
			<quad4 id="2">51,52,77,78</quad4>
			<quad4 id="3">52,53,76,77</quad4>
			<quad4 id="4">53,54,75,76</quad4>
			<quad4 id="5">54,55,74,75</quad4>
			<quad4 id="6">55,56,73,74</quad4>
			<quad4 id="7">56,57,72,73</quad4>
			<quad4 id="8">57,58,71,72</quad4>
			<quad4 id="9">58,59,70,71</quad4>
			<quad4 id="10">59,60,69,70</quad4>
			<quad4 id="11">60,61,68,69</quad4>
			<quad4 id="12">61,62,67,68</quad4>
			<quad4 id="13">62,63,66,67</quad4>
			<quad4 id="14">63,64,65,66</quad4>
			<quad4 id="15">64,3,7,65</quad4>
		</Surface>
		<Surface name="FixedDisplacement2">
			<quad4 id="1">4,121,148,8</quad4>
			<quad4 id="2">121,122,147,148</quad4>
			<quad4 id="3">122,123,146,147</quad4>
			<quad4 id="4">123,124,145,146</quad4>
			<quad4 id="5">124,125,144,145</quad4>
			<quad4 id="6">125,126,143,144</quad4>
			<quad4 id="7">126,127,142,143</quad4>
			<quad4 id="8">127,128,141,142</quad4>
			<quad4 id="9">128,129,140,141</quad4>
			<quad4 id="10">129,130,139,140</quad4>
			<quad4 id="11">130,131,138,139</quad4>
			<quad4 id="12">131,132,137,138</quad4>
			<quad4 id="13">132,133,136,137</quad4>
			<quad4 id="14">133,134,135,136</quad4>
			<quad4 id="15">134,1,5,135</quad4>
		</Surface>
		<Surface name="FixedDisplacement3">
			<quad4 id="1">4,99,149,121</quad4>
			<quad4 id="2">121,149,170,122</quad4>
			<quad4 id="3">122,170,191,123</quad4>
			<quad4 id="4">123,191,212,124</quad4>
			<quad4 id="5">124,212,233,125</quad4>
			<quad4 id="6">125,233,254,126</quad4>
			<quad4 id="7">126,254,275,127</quad4>
			<quad4 id="8">127,275,296,128</quad4>
			<quad4 id="9">128,296,317,129</quad4>
			<quad4 id="10">129,317,338,130</quad4>
			<quad4 id="11">130,338,359,131</quad4>
			<quad4 id="12">131,359,380,132</quad4>
			<quad4 id="13">132,380,401,133</quad4>
			<quad4 id="14">133,401,422,134</quad4>
			<quad4 id="15">134,422,9,1</quad4>
			<quad4 id="16">99,98,150,149</quad4>
			<quad4 id="17">149,150,171,170</quad4>
			<quad4 id="18">170,171,192,191</quad4>
			<quad4 id="19">191,192,213,212</quad4>
			<quad4 id="20">212,213,234,233</quad4>
<!-- ... 640 like lines cut -->
		</Surface>
		<Surface name="PressureLoad1">
			<quad4 id="1">3,79,120,7</quad4>
			<quad4 id="2">79,80,119,120</quad4>
			<quad4 id="3">80,81,118,119</quad4>
			<quad4 id="4">81,82,117,118</quad4>
			<quad4 id="5">82,83,116,117</quad4>
			<quad4 id="6">83,84,115,116</quad4>
			<quad4 id="7">84,85,114,115</quad4>
			<quad4 id="8">85,86,113,114</quad4>
			<quad4 id="9">86,87,112,113</quad4>
			<quad4 id="10">87,88,111,112</quad4>
			<quad4 id="11">88,89,110,111</quad4>
			<quad4 id="12">89,90,109,110</quad4>
			<quad4 id="13">90,91,108,109</quad4>
			<quad4 id="14">91,92,107,108</quad4>
			<quad4 id="15">92,93,106,107</quad4>
			<quad4 id="16">93,94,105,106</quad4>
			<quad4 id="17">94,95,104,105</quad4>
			<quad4 id="18">95,96,103,104</quad4>
			<quad4 id="19">96,97,102,103</quad4>
			<quad4 id="20">97,98,101,102</quad4>
			<quad4 id="21">98,99,100,101</quad4>
			<quad4 id="22">99,4,8,100</quad4>
		</Surface>
	</Mesh>
	<MeshDomains>
		<SolidDomain name="Part1" mat="Steel"/>
	</MeshDomains>
	<Boundary>
		<bc name="FixedDisplacement1" type="fix" node_set="@surface:FixedDisplacement1">
			<dofs>x</dofs>
		</bc>
		<bc name="FixedDisplacement2" type="fix" node_set="@surface:FixedDisplacement2">
			<dofs>y</dofs>
		</bc>
		<bc name="FixedDisplacement3" type="fix" node_set="@surface:FixedDisplacement3">
			<dofs>z</dofs>
		</bc>
	</Boundary>
	<Loads>
		<surface_load name="PressureLoad1" type="pressure" surface="PressureLoad1">
			<pressure lc="1">30000</pressure>
			<linear>0</linear>
			<symmetric_stiffness>0</symmetric_stiffness>
			<shell_bottom>0</shell_bottom>
		</surface_load>
	</Loads>
	<LoadData>
		<load_controller id="1" type="loadcurve">
			<interpolate>SMOOTH</interpolate>
			<points>
				<point>0,0</point>
				<point>1,1</point>
			</points>
		</load_controller>
	</LoadData>
	<Output>
		<plotfile type="febio">
			<var type="displacement"/>
			<var type="intact bond fraction"/>
			<var type="octahedral plastic strain"/>
			<var type="relative volume"/>
			<var type="stress"/>
			<var type="yielded bond fraction"/>
			<var type="left Hencky"/>
			<var type="right Hencky"/>
		</plotfile>
	</Output>
</febio_spec>
