<?xml version="1.0" encoding="ISO-8859-1"?>
<febio_spec version="3.0">
	<Module type="solid"/>
	<Control>
		<analysis>STATIC</analysis>
		<time_steps>1</time_steps>
		<step_size>1</step_size>
		<solver>
			<max_refs>15</max_refs>
			<max_ups>10</max_ups>
			<diverge_reform>1</diverge_reform>
			<reform_each_time_step>1</reform_each_time_step>
			<dtol>0.001</dtol>
			<etol>0.01</etol>
			<rtol>0</rtol>
			<lstol>0.9</lstol>
			<min_residual>1e-20</min_residual>
			<qnmethod>BFGS</qnmethod>
			<rhoi>-2</rhoi>
		</solver>
	</Control>
	<Globals>
		<Constants>
			<T>0</T>
			<R>0</R>
			<Fc>0</Fc>
		</Constants>
	</Globals>
	<Material>
		<material id="1" name="Material1" type="prestrain elastic">
			<density>1</density>
			<elastic type="coupled trans-iso Mooney-Rivlin">
				<c1>4.36</c1>
				<c2>0</c2>
				<c3>2.4</c3>
				<c4>30.6</c4>
				<c5>323</c5>
				<lambda>1.055</lambda>
				<fiber type="local">1,2</fiber>
				<k>100</k>
			</elastic>
			<prestrain type="in-situ stretch">
				<stretch type="map">pre_stretch</stretch>
				<isochoric>0</isochoric>
			</prestrain>
		</material>
	</Material>
	<Mesh>
		<Nodes name="test9_is">
			<node id="1">-0.5,-0.5,0</node>
			<node id="2">-0.5,-0.5,0.2</node>
			<node id="3">-0.5,-0.5,0.4</node>
			<node id="4">-0.5,-0.5,0.6</node>
			<node id="5">-0.5,-0.5,0.8</node>
			<node id="6">-0.5,-0.5,1</node>
			<node id="7">-0.5,-0.3,0</node>
			<node id="8">-0.5,-0.3,0.2</node>
			<node id="9">-0.5,-0.3,0.4</node>
			<node id="10">-0.5,-0.3,0.6</node>
			<node id="11">-0.5,-0.3,0.8</node>
			<node id="12">-0.5,-0.3,1</node>
			<node id="13">-0.5,-0.1,0</node>
			<node id="14">-0.5,-0.1,0.2</node>
			<node id="15">-0.5,-0.1,0.4</node>
			<node id="16">-0.5,-0.1,0.6</node>
			<node id="17">-0.5,-0.1,0.8</node>
			<node id="18">-0.5,-0.1,1</node>
			<node id="19">-0.5,0.1,0</node>
			<node id="20">-0.5,0.1,0.2</node>
<!-- ... 196 like lines cut -->
		</Nodes>
		<Elements type="hex8" name="Part1">
			<elem id="1">1,37,43,7,2,38,44,8</elem>
			<elem id="2">2,38,44,8,3,39,45,9</elem>
			<elem id="3">3,39,45,9,4,40,46,10</elem>
			<elem id="4">4,40,46,10,5,41,47,11</elem>
			<elem id="5">5,41,47,11,6,42,48,12</elem>
			<elem id="6">7,43,49,13,8,44,50,14</elem>
			<elem id="7">8,44,50,14,9,45,51,15</elem>
			<elem id="8">9,45,51,15,10,46,52,16</elem>
			<elem id="9">10,46,52,16,11,47,53,17</elem>
			<elem id="10">11,47,53,17,12,48,54,18</elem>
			<elem id="11">13,49,55,19,14,50,56,20</elem>
			<elem id="12">14,50,56,20,15,51,57,21</elem>
			<elem id="13">15,51,57,21,16,52,58,22</elem>
			<elem id="14">16,52,58,22,17,53,59,23</elem>
			<elem id="15">17,53,59,23,18,54,60,24</elem>
			<elem id="16">19,55,61,25,20,56,62,26</elem>
			<elem id="17">20,56,62,26,21,57,63,27</elem>
			<elem id="18">21,57,63,27,22,58,64,28</elem>
			<elem id="19">22,58,64,28,23,59,65,29</elem>
			<elem id="20">23,59,65,29,24,60,66,30</elem>
<!-- ... 105 like lines cut -->
		</Elements>
		<NodeSet name="FixedDisplacement01">
			<n id="1"/>
			<n id="2"/>
			<n id="3"/>
			<n id="4"/>
			<n id="5"/>
			<n id="6"/>
			<n id="7"/>
			<n id="8"/>
			<n id="9"/>
			<n id="10"/>
			<n id="11"/>
			<n id="12"/>
			<n id="13"/>
			<n id="14"/>
			<n id="15"/>
			<n id="16"/>
			<n id="17"/>
			<n id="18"/>
			<n id="19"/>
			<n id="20"/>
<!-- ... 16 like lines cut -->
		</NodeSet>
		<NodeSet name="FixedDisplacement02">
			<n id="181"/>
			<n id="182"/>
			<n id="183"/>
			<n id="184"/>
			<n id="185"/>
			<n id="186"/>
			<n id="187"/>
			<n id="188"/>
			<n id="189"/>
			<n id="190"/>
			<n id="191"/>
			<n id="192"/>
			<n id="193"/>
			<n id="194"/>
			<n id="195"/>
			<n id="196"/>
			<n id="197"/>
			<n id="198"/>
			<n id="199"/>
			<n id="200"/>
<!-- ... 16 like lines cut -->
		</NodeSet>
		<NodeSet name="PrescribedBC01">
			<n id="181"/>
			<n id="182"/>
			<n id="183"/>
			<n id="184"/>
			<n id="185"/>
			<n id="186"/>
			<n id="187"/>
			<n id="188"/>
			<n id="189"/>
			<n id="190"/>
			<n id="191"/>
			<n id="192"/>
			<n id="193"/>
			<n id="194"/>
			<n id="195"/>
			<n id="196"/>
			<n id="197"/>
			<n id="198"/>
			<n id="199"/>
			<n id="200"/>
<!-- ... 16 like lines cut -->
		</NodeSet>
	</Mesh>
	<MeshDomains>
		<SolidDomain name="Part1" mat="Material1"/>
	</MeshDomains>
	<MeshData>
		<ElementData name="pre_stretch" elem_set="Part1">
			<element lid="1">1.04358</element>
			<element lid="2">1.04200</element>
			<element lid="3">1.04176</element>
			<element lid="4">1.04200</element>
			<element lid="5">1.04358</element>
			<element lid="6">1.04200</element>
			<element lid="7">1.03969</element>
			<element lid="8">1.03891</element>
			<element lid="9">1.03969</element>
			<element lid="10">1.04200</element>
			<element lid="11">1.04176</element>
			<element lid="12">1.03891</element>
			<element lid="13">1.03778</element>
			<element lid="14">1.03891</element>
			<element lid="15">1.04176</element>
			<element lid="16">1.042</element>
			<element lid="17">1.03969</element>
			<element lid="18">1.03891</element>
			<element lid="19">1.03969</element>
			<element lid="20">1.042</element>
<!-- ... 105 like lines cut -->
		</ElementData>
	</MeshData>
	<Boundary>
		<bc name="FixedDisplacement01" type="fix" node_set="FixedDisplacement01">
			<dofs>x,y,z</dofs>
		</bc>
		<bc name="FixedDisplacement02" type="fix" node_set="FixedDisplacement02">
			<dofs>y,z</dofs>
		</bc>
		<bc name="PrescribedBC01" type="prescribe" node_set="PrescribedBC01">
			<dof>x</dof>
			<scale>0</scale>
			<relative>0</relative>
		</bc>
	</Boundary>
	<Constraints>
		<constraint type="in-situ stretch">
			<tolerance>0.01</tolerance>
			<min_iters>3</min_iters>
		</constraint>
	</Constraints>
	<Output>
		<plotfile type="febio">
			<var type="displacement"/>
			<var type="stress"/>
			<var type="prestrain stretch"/>
			<var type="fiber stretch['elastic']"/>
		</plotfile>
	</Output>
</febio_spec>
