<?xml version="1.0" encoding="ISO-8859-1"?>
<febio_spec version="3.0">
	<Module type="solid"/>
	<Control>
		<analysis>STATIC</analysis>
		<time_steps>62</time_steps>
		<step_size>1</step_size>
		<solver>
			<max_refs>15</max_refs>
			<max_ups>10</max_ups>
			<diverge_reform>1</diverge_reform>
			<reform_each_time_step>1</reform_each_time_step>
			<dtol>0.001</dtol>
			<etol>0.01</etol>
			<rtol>1e+10</rtol>
			<lstol>0.9</lstol>
			<min_residual>1e-20</min_residual>
			<qnmethod>BFGS</qnmethod>
			<rhoi>-2</rhoi>
			<optimize_bw>1</optimize_bw>
		</solver>
	</Control>
	<Globals>
		<Constants>
			<T>0</T>
			<R>0</R>
			<Fc>0</Fc>
		</Constants>
	</Globals>
	<Material>
		<material id="1" name="Material01" type="neo-Hookean">
			<density>1</density>
			<E>1</E>
			<v>0.1</v>
		</material>
		<material id="2" name="Material02" type="rigid body">
			<density>1</density>
		</material>
		<material id="3" name="Material03" type="rigid body">
			<density>1</density>
		</material>
		<material id="4" name="Material04" type="rigid body">
			<density>1</density>
		</material>
		<material id="5" name="Material05" type="rigid body">
			<density>1</density>
		</material>
	</Material>
	<Mesh>
		<Nodes name="Object01">
			<node id="1">-0.35355338,-0.35355338,1.1</node>
			<node id="2">-0.35355338,-0.23570226,1.1</node>
			<node id="3">-0.35355338,-0.11785113,1.1</node>
			<node id="4">-0.35355338,0,1.1</node>
			<node id="5">-0.35355338,0.11785113,1.1</node>
			<node id="6">-0.35355338,0.23570226,1.1</node>
			<node id="7">-0.35355338,0.35355338,1.1</node>
			<node id="8">-0.23570226,-0.35355338,1.1</node>
			<node id="9">-0.23570226,-0.23570226,1.1</node>
			<node id="10">-0.23570226,-0.11785113,1.1</node>
			<node id="11">-0.23570226,0,1.1</node>
			<node id="12">-0.23570226,0.11785113,1.1</node>
			<node id="13">-0.23570226,0.23570226,1.1</node>
			<node id="14">-0.23570226,0.35355338,1.1</node>
			<node id="15">-0.11785113,-0.35355338,1.1</node>
			<node id="16">-0.11785113,-0.23570226,1.1</node>
			<node id="17">-0.11785113,-0.11785113,1.1</node>
			<node id="18">-0.11785113,0,1.1</node>
			<node id="19">-0.11785113,0.11785113,1.1</node>
			<node id="20">-0.11785113,0.23570226,1.1</node>
<!-- ... 3277 like lines cut -->
		</Nodes>
		<Elements type="hex8" name="Part20">
			<elem id="1">1175,1182,1183,1176,1368,1375,1376,1369</elem>
			<elem id="2">1176,1183,1184,1177,1369,1376,1377,1370</elem>
			<elem id="3">1177,1184,1185,1178,1370,1377,1378,1371</elem>
			<elem id="4">1178,1185,1186,1179,1371,1378,1379,1372</elem>
			<elem id="5">1179,1186,1187,1180,1372,1379,1380,1373</elem>
			<elem id="6">1180,1187,1188,1181,1373,1380,1381,1374</elem>
			<elem id="7">1182,1189,1190,1183,1375,1382,1383,1376</elem>
			<elem id="8">1183,1190,1191,1184,1376,1383,1384,1377</elem>
			<elem id="9">1184,1191,1192,1185,1377,1384,1385,1378</elem>
			<elem id="10">1185,1192,1193,1186,1378,1385,1386,1379</elem>
			<elem id="11">1186,1193,1194,1187,1379,1386,1387,1380</elem>
			<elem id="12">1187,1194,1195,1188,1380,1387,1388,1381</elem>
			<elem id="13">1189,1196,1197,1190,1382,1389,1390,1383</elem>
			<elem id="14">1190,1197,1198,1191,1383,1390,1391,1384</elem>
			<elem id="15">1191,1198,1199,1192,1384,1391,1392,1385</elem>
			<elem id="16">1192,1199,1200,1193,1385,1392,1393,1386</elem>
			<elem id="17">1193,1200,1201,1194,1386,1393,1394,1387</elem>
			<elem id="18">1194,1201,1202,1195,1387,1394,1395,1388</elem>
			<elem id="19">1196,1203,1204,1197,1389,1396,1397,1390</elem>
			<elem id="20">1197,1204,1205,1198,1390,1397,1398,1391</elem>
<!-- ... 1780 like lines cut -->
		</Elements>
		<Elements type="hex8" name="Part21">
			<elem id="1801">1,8,9,2,194,201,202,195</elem>
			<elem id="1802">2,9,10,3,195,202,203,196</elem>
			<elem id="1803">3,10,11,4,196,203,204,197</elem>
			<elem id="1804">4,11,12,5,197,204,205,198</elem>
			<elem id="1805">5,12,13,6,198,205,206,199</elem>
			<elem id="1806">6,13,14,7,199,206,207,200</elem>
			<elem id="1807">8,15,16,9,201,208,209,202</elem>
			<elem id="1808">9,16,17,10,202,209,210,203</elem>
			<elem id="1809">10,17,18,11,203,210,211,204</elem>
			<elem id="1810">11,18,19,12,204,211,212,205</elem>
			<elem id="1811">12,19,20,13,205,212,213,206</elem>
			<elem id="1812">13,20,21,14,206,213,214,207</elem>
			<elem id="1813">15,22,23,16,208,215,216,209</elem>
			<elem id="1814">16,23,24,17,209,216,217,210</elem>
			<elem id="1815">17,24,25,18,210,217,218,211</elem>
			<elem id="1816">18,25,26,19,211,218,219,212</elem>
			<elem id="1817">19,26,27,20,212,219,220,213</elem>
			<elem id="1818">20,27,28,21,213,220,221,214</elem>
			<elem id="1819">22,29,30,23,215,222,223,216</elem>
			<elem id="1820">23,30,31,24,216,223,224,217</elem>
<!-- ... 160 like lines cut -->
		</Elements>
		<Elements type="hex8" name="Part22">
			<elem id="1981">387,394,395,388,580,587,588,581</elem>
			<elem id="1982">388,395,396,389,581,588,589,582</elem>
			<elem id="1983">389,396,397,390,582,589,590,583</elem>
			<elem id="1984">390,397,398,391,583,590,591,584</elem>
			<elem id="1985">391,398,399,392,584,591,592,585</elem>
			<elem id="1986">392,399,400,393,585,592,593,586</elem>
			<elem id="1987">394,401,402,395,587,594,595,588</elem>
			<elem id="1988">395,402,403,396,588,595,596,589</elem>
			<elem id="1989">396,403,404,397,589,596,597,590</elem>
			<elem id="1990">397,404,405,398,590,597,598,591</elem>
			<elem id="1991">398,405,406,399,591,598,599,592</elem>
			<elem id="1992">399,406,407,400,592,599,600,593</elem>
			<elem id="1993">401,408,409,402,594,601,602,595</elem>
			<elem id="1994">402,409,410,403,595,602,603,596</elem>
			<elem id="1995">403,410,411,404,596,603,604,597</elem>
			<elem id="1996">404,411,412,405,597,604,605,598</elem>
			<elem id="1997">405,412,413,406,598,605,606,599</elem>
			<elem id="1998">406,413,414,407,599,606,607,600</elem>
			<elem id="1999">408,415,416,409,601,608,609,602</elem>
			<elem id="2000">409,416,417,410,602,609,610,603</elem>
<!-- ... 161 like lines cut -->
		</Elements>
		<Elements type="hex8" name="Part23">
			<elem id="2162">781,785,787,783,782,786,788,784</elem>
		</Elements>
		<Elements type="hex8" name="Part24">
			<elem id="2163">789,796,797,790,982,989,990,983</elem>
			<elem id="2164">790,797,798,791,983,990,991,984</elem>
			<elem id="2165">791,798,799,792,984,991,992,985</elem>
			<elem id="2166">792,799,800,793,985,992,993,986</elem>
			<elem id="2167">793,800,801,794,986,993,994,987</elem>
			<elem id="2168">794,801,802,795,987,994,995,988</elem>
			<elem id="2169">796,803,804,797,989,996,997,990</elem>
			<elem id="2170">797,804,805,798,990,997,998,991</elem>
			<elem id="2171">798,805,806,799,991,998,999,992</elem>
			<elem id="2172">799,806,807,800,992,999,1000,993</elem>
			<elem id="2173">800,807,808,801,993,1000,1001,994</elem>
			<elem id="2174">801,808,809,802,994,1001,1002,995</elem>
			<elem id="2175">803,810,811,804,996,1003,1004,997</elem>
			<elem id="2176">804,811,812,805,997,1004,1005,998</elem>
			<elem id="2177">805,812,813,806,998,1005,1006,999</elem>
			<elem id="2178">806,813,814,807,999,1006,1007,1000</elem>
			<elem id="2179">807,814,815,808,1000,1007,1008,1001</elem>
			<elem id="2180">808,815,816,809,1001,1008,1009,1002</elem>
			<elem id="2181">810,817,818,811,1003,1010,1011,1004</elem>
			<elem id="2182">811,818,819,812,1004,1011,1012,1005</elem>
<!-- ... 160 like lines cut -->
		</Elements>
		<NodeSet name="RigidNodeset 1">
			<n id="3105"/>
			<n id="3106"/>
			<n id="3107"/>
			<n id="3108"/>
			<n id="3109"/>
			<n id="3110"/>
			<n id="3111"/>
			<n id="3112"/>
			<n id="3113"/>
			<n id="3114"/>
			<n id="3115"/>
			<n id="3116"/>
			<n id="3117"/>
			<n id="3118"/>
			<n id="3119"/>
			<n id="3120"/>
			<n id="3121"/>
			<n id="3122"/>
			<n id="3123"/>
			<n id="3124"/>
<!-- ... 173 like lines cut -->
		</NodeSet>
		<NodeSet name="RigidNodeset 2">
			<n id="1175"/>
			<n id="1176"/>
			<n id="1177"/>
			<n id="1178"/>
			<n id="1179"/>
			<n id="1180"/>
			<n id="1181"/>
			<n id="1182"/>
			<n id="1183"/>
			<n id="1184"/>
			<n id="1185"/>
			<n id="1186"/>
			<n id="1187"/>
			<n id="1188"/>
			<n id="1189"/>
			<n id="1190"/>
			<n id="1191"/>
			<n id="1192"/>
			<n id="1193"/>
			<n id="1194"/>
<!-- ... 173 like lines cut -->
		</NodeSet>
		<ElementSet name="unnamed_set01">
			<e id="612"/>
		</ElementSet>
	</Mesh>
	<MeshDomains>
		<SolidDomain name="Part20" mat="Material01"/>
		<SolidDomain name="Part21" mat="Material02"/>
		<SolidDomain name="Part22" mat="Material03"/>
		<SolidDomain name="Part23" mat="Material04"/>
		<SolidDomain name="Part24" mat="Material05"/>
	</MeshDomains>
	<Boundary>
		<bc name="RigidInterface02" type="rigid" node_set="RigidNodeset 1">
			<rb>2</rb>
		</bc>
		<bc name="RigidInterface03" type="rigid" node_set="RigidNodeset 2">
			<rb>3</rb>
		</bc>
	</Boundary>
	<Rigid>
		<rigid_constraint name="RigidFixed81" type="fix">
			<rb>2</rb>
			<dofs>Rx,Ry,Rz,Ru,Rv,Rw</dofs>
		</rigid_constraint>
		<rigid_constraint name="RigidFixed82" type="fix">
			<rb>3</rb>
			<dofs>Rx,Ry,Ru,Rv,Rw</dofs>
		</rigid_constraint>
		<rigid_constraint name="RigidFixed83" type="fix">
			<rb>4</rb>
			<dofs>Ry,Ru,Rw</dofs>
		</rigid_constraint>
		<rigid_constraint name="RigidFixed84" type="fix">
			<rb>5</rb>
			<dofs>Rx,Ry,Rz,Ru,Rw</dofs>
		</rigid_constraint>
		<rigid_constraint name="RigidDisplacement38" type="prescribe">
			<rb>5</rb>
			<dof>Rv</dof>
			<value lc="1">1</value>
		</rigid_constraint>
		<rigid_connector type="rigid joint" name="RigidJoint01">
			<tolerance>0.01</tolerance>
			<penalty>100</penalty>
			<body_a>4</body_a>
			<body_b>5</body_b>
			<joint>0.45,0.06,-0.95</joint>
		</rigid_connector>
		<rigid_connector type="rigid joint" name="RigidJoint02">
			<tolerance>0.01</tolerance>
			<penalty>100</penalty>
			<body_a>3</body_a>
			<body_b>4</body_b>
			<joint>0,0,-0.5</joint>
		</rigid_connector>
	</Rigid>
	<Contact>
	</Contact>
	<LoadData>
		<load_controller id="1" type="loadcurve">
			<interpolate>LINEAR</interpolate>
			<points>
				<point>0,0</point>
				<point>62,6.2</point>
			</points>
		</load_controller>
	</LoadData>
	<Output>
		<plotfile type="febio">
			<var type="displacement"/>
			<var type="stress"/>
		</plotfile>
		<logfile>
			<element_data data="sz" elem_set="unnamed_set01"/>
		</logfile>
	</Output>
</febio_spec>
