<?xml version="1.0" encoding="ISO-8859-1"?>
<febio_spec version="3.0">
	<Module type="solid"/>
	<Control>
		<analysis>STATIC</analysis>
		<time_steps>10</time_steps>
		<step_size>0.1</step_size>
		<solver>
			<max_refs>15</max_refs>
			<max_ups>10</max_ups>
			<diverge_reform>1</diverge_reform>
			<reform_each_time_step>1</reform_each_time_step>
			<dtol>0.001</dtol>
			<etol>0.01</etol>
			<rtol>0</rtol>
			<lstol>0.9</lstol>
			<min_residual>1e-20</min_residual>
			<qnmethod>BFGS</qnmethod>
			<rhoi>-2</rhoi>
		</solver>
		<time_stepper>
			<dtmin>0.01</dtmin>
			<dtmax>0.1</dtmax>
			<max_retries>15</max_retries>
			<opt_iter>10</opt_iter>
		</time_stepper>
	</Control>
	<Globals>
		<Constants>
			<T>0</T>
			<R>0</R>
			<Fc>0</Fc>
		</Constants>
	</Globals>
	<Material>
		<material id="1" name="Material 1" type="neo-Hookean">
			<density>1</density>
			<E>1</E>
			<v>0</v>
		</material>
		<material id="2" name="Material 2" type="rigid body">
			<density>1</density>
		</material>
		<material id="3" name="Material 3" type="rigid body">
			<density>1</density>
		</material>
		<material id="4" name="Material 4" type="rigid body">
			<density>1</density>
		</material>
	</Material>
	<Mesh>
		<Nodes name="Object01">
			<node id="1">-0.35355338,-0.35355338,0</node>
			<node id="2">-0.35355338,-0.23570226,0</node>
			<node id="3">-0.35355338,-0.11785113,0</node>
			<node id="4">-0.35355338,0,0</node>
			<node id="5">-0.35355338,0.11785113,0</node>
			<node id="6">-0.35355338,0.23570226,0</node>
			<node id="7">-0.35355338,0.35355338,0</node>
			<node id="8">-0.23570226,-0.35355338,0</node>
			<node id="9">-0.23570226,-0.23570226,0</node>
			<node id="10">-0.23570226,-0.11785113,0</node>
			<node id="11">-0.23570226,0,0</node>
			<node id="12">-0.23570226,0.11785113,0</node>
			<node id="13">-0.23570226,0.23570226,0</node>
			<node id="14">-0.23570226,0.35355338,0</node>
			<node id="15">-0.11785113,-0.35355338,0</node>
			<node id="16">-0.11785113,-0.23570226,0</node>
			<node id="17">-0.11785113,-0.11785113,0</node>
			<node id="18">-0.11785113,0,0</node>
			<node id="19">-0.11785113,0.11785113,0</node>
			<node id="20">-0.11785113,0.23570226,0</node>
<!-- ... 434 like lines cut -->
		</Nodes>
		<Elements type="hex8" name="Part28">
			<elem id="1">403,407,409,405,404,408,410,406</elem>
			<elem id="2">407,409,410,408,411,413,414,412</elem>
			<elem id="3">411,413,414,412,415,417,418,416</elem>
			<elem id="4">415,417,418,416,419,421,422,420</elem>
			<elem id="5">419,421,422,420,423,425,426,424</elem>
			<elem id="6">423,425,426,424,427,429,430,428</elem>
			<elem id="7">427,429,430,428,431,433,434,432</elem>
			<elem id="8">431,433,434,432,435,437,438,436</elem>
			<elem id="9">435,437,438,436,439,441,442,440</elem>
			<elem id="10">439,441,442,440,443,445,446,444</elem>
			<elem id="11">443,445,446,444,447,449,450,448</elem>
			<elem id="12">447,449,450,448,451,453,454,452</elem>
		</Elements>
		<Elements type="hex8" name="Part29">
			<elem id="13">1,8,9,2,194,201,202,195</elem>
			<elem id="14">2,9,10,3,195,202,203,196</elem>
			<elem id="15">3,10,11,4,196,203,204,197</elem>
			<elem id="16">4,11,12,5,197,204,205,198</elem>
			<elem id="17">5,12,13,6,198,205,206,199</elem>
			<elem id="18">6,13,14,7,199,206,207,200</elem>
			<elem id="19">8,15,16,9,201,208,209,202</elem>
			<elem id="20">9,16,17,10,202,209,210,203</elem>
			<elem id="21">10,17,18,11,203,210,211,204</elem>
			<elem id="22">11,18,19,12,204,211,212,205</elem>
			<elem id="23">12,19,20,13,205,212,213,206</elem>
			<elem id="24">13,20,21,14,206,213,214,207</elem>
			<elem id="25">15,22,23,16,208,215,216,209</elem>
			<elem id="26">16,23,24,17,209,216,217,210</elem>
			<elem id="27">17,24,25,18,210,217,218,211</elem>
			<elem id="28">18,25,26,19,211,218,219,212</elem>
			<elem id="29">19,26,27,20,212,219,220,213</elem>
			<elem id="30">20,27,28,21,213,220,221,214</elem>
			<elem id="31">22,29,30,23,215,222,223,216</elem>
			<elem id="32">23,30,31,24,216,223,224,217</elem>
<!-- ... 160 like lines cut -->
		</Elements>
		<Elements type="hex8" name="Part30">
			<elem id="193">387,391,393,389,388,392,394,390</elem>
		</Elements>
		<Elements type="hex8" name="Part31">
			<elem id="194">395,399,401,397,396,400,402,398</elem>
		</Elements>
		<NodeSet name="RigidNodeset 1">
			<n id="403"/>
			<n id="404"/>
			<n id="405"/>
			<n id="406"/>
		</NodeSet>
		<NodeSet name="RigidNodeset 2">
			<n id="451"/>
			<n id="452"/>
			<n id="453"/>
			<n id="454"/>
		</NodeSet>
		<ElementSet name="unnamed_set01">
			<e id="10"/>
		</ElementSet>
	</Mesh>
	<MeshDomains>
		<SolidDomain name="Part28" mat="Material 1"/>
		<SolidDomain name="Part29" mat="Material 2"/>
		<SolidDomain name="Part30" mat="Material 3"/>
		<SolidDomain name="Part31" mat="Material 4"/>
	</MeshDomains>
	<Boundary>
		<bc name="RigidInterface03" type="rigid" node_set="RigidNodeset 1">
			<rb>3</rb>
		</bc>
		<bc name="RigidInterface04" type="rigid" node_set="RigidNodeset 2">
			<rb>4</rb>
		</bc>
	</Boundary>
	<Rigid>
		<rigid_constraint name="RigidFixed87" type="fix">
			<rb>2</rb>
			<dofs>Rx,Ry,Rz,Ru,Rv,Rw</dofs>
		</rigid_constraint>
		<rigid_constraint name="RigidFixed88" type="fix">
			<rb>3</rb>
			<dofs>Rz,Ru,Rv</dofs>
		</rigid_constraint>
		<rigid_constraint name="RigidFixed89" type="fix">
			<rb>4</rb>
			<dofs>Ry,Rz,Ru,Rv,Rw</dofs>
		</rigid_constraint>
		<rigid_constraint name="RigidDisplacement39" type="prescribe">
			<rb>4</rb>
			<dof>Rx</dof>
			<value lc="1">1</value>
		</rigid_constraint>
		<rigid_connector type="rigid joint" name="RigidJoint01">
			<tolerance>0.1</tolerance>
			<penalty>1</penalty>
			<body_a>2</body_a>
			<body_b>3</body_b>
			<joint>0,0,0.1</joint>
		</rigid_connector>
		<rigid_connector type="rigid joint" name="RigidJoint02">
			<tolerance>0.1</tolerance>
			<penalty>1</penalty>
			<body_a>3</body_a>
			<body_b>4</body_b>
			<joint>0,-4.3,0.1</joint>
		</rigid_connector>
	</Rigid>
	<Contact>
	</Contact>
	<LoadData>
		<load_controller id="1" type="loadcurve">
			<interpolate>LINEAR</interpolate>
			<points>
				<point>0,0</point>
				<point>1,0.1</point>
			</points>
		</load_controller>
	</LoadData>
	<Output>
		<plotfile type="febio">
			<var type="displacement"/>
			<var type="stress"/>
		</plotfile>
		<logfile>
			<element_data data="Ez" elem_set="unnamed_set01"/>
		</logfile>
	</Output>
</febio_spec>
