<?xml version="1.0" encoding="ISO-8859-1"?>
<!--
Problem Description:
	Knee Model.  The femur and patella are free to rotate about the y-axis.  The former
	has a prescribed rotatioon of 1.57 radians at time t=1.  Ligaments are attached
	between the femur and the tibia; the front one going over the patella.
Main Features:
	Rigid Bodies
Secondary Features:
	Prescribed rotation
Materials:
	Mooney-Rivlin
	Rigid Bodies
Degrees of Freedom: 662
Results:
	Steps Completed: 8
	Equilibrium Iterations: 81
	Right Hand Evaluations: 90
	Siffness Reformations: 12
	Other:
		The top of the patella has a z-displacement of 0.526 at time t=1.
Comments:
	
-->
<febio_spec version="3.0">
	<Module type="solid"/>
	<Control>
		<analysis>STATIC</analysis>
		<time_steps>10</time_steps>
		<step_size>0.1</step_size>
		<solver>
			<max_refs>15</max_refs>
			<max_ups>10</max_ups>
			<diverge_reform>1</diverge_reform>
			<reform_each_time_step>1</reform_each_time_step>
			<dtol>0.001</dtol>
			<etol>0.01</etol>
			<rtol>1e+10</rtol>
			<lstol>0.9</lstol>
			<min_residual>1e-20</min_residual>
			<qnmethod>BFGS</qnmethod>
			<rhoi>-2</rhoi>
		</solver>
		<time_stepper>
			<dtmin>0.0333333</dtmin>
			<dtmax>0.3</dtmax>
			<max_retries>5</max_retries>
			<opt_iter>11</opt_iter>
		</time_stepper>
	</Control>
	<Globals>
		<Constants>
			<T>0</T>
			<R>0</R>
			<Fc>0</Fc>
		</Constants>
	</Globals>
	<Material>
		<material id="1" name="Ligament (Mooney-Rivlin)" type="Mooney-Rivlin">
			<density>1</density>
			<c1>1000</c1>
			<c2>0</c2>
			<k>19333.3</k>
		</material>
		<material id="2" name="Femur (Rigid Body)" type="rigid body">
			<density>1</density>
			<center_of_mass>0,0,0</center_of_mass>
		</material>
		<material id="3" name="Tibia (Rigid Body)" type="rigid body">
			<density>1</density>
		</material>
		<material id="4" name="Patella (Rigid Body)" type="rigid body">
			<density>1</density>
			<center_of_mass>0,0,0</center_of_mass>
		</material>
	</Material>
	<Mesh>
		<Nodes name="Object01">
			<node id="1">-1.05,-0.2,-0.30000001</node>
			<node id="2">-1.05,-0.2,-0.16666667</node>
			<node id="3">-1.05,-0.2,-0.033333343</node>
			<node id="4">-1.05,-0.2,0.099999994</node>
			<node id="5">-1.05,-0.06666667,-0.30000001</node>
			<node id="6">-1.05,-0.06666667,-0.16666667</node>
			<node id="7">-1.05,-0.06666667,-0.033333343</node>
			<node id="8">-1.05,-0.06666667,0.099999994</node>
			<node id="9">-1.05,0.06666667,-0.30000001</node>
			<node id="10">-1.05,0.06666667,-0.16666667</node>
			<node id="11">-1.05,0.06666667,-0.033333343</node>
			<node id="12">-1.05,0.06666667,0.099999994</node>
			<node id="13">-1.05,0.2,-0.30000001</node>
			<node id="14">-1.05,0.2,-0.16666667</node>
			<node id="15">-1.05,0.2,-0.033333343</node>
			<node id="16">-1.05,0.2,0.099999994</node>
			<node id="17">-0.94999999,-0.2,-0.30000001</node>
			<node id="18">-0.94999999,-0.2,-0.16666667</node>
			<node id="19">-0.94999999,-0.2,-0.033333343</node>
			<node id="20">-0.94999999,-0.2,0.099999994</node>
<!-- ... 994 like lines cut -->
		</Nodes>
		<Elements type="hex8" name="Part32">
			<elem id="1">454,490,491,455,795,797,798,796</elem>
			<elem id="2">490,526,527,491,797,799,800,798</elem>
			<elem id="3">795,797,798,796,801,803,804,802</elem>
			<elem id="4">797,799,800,798,803,805,806,804</elem>
			<elem id="5">454,490,797,795,807,808,811,810</elem>
			<elem id="6">490,526,799,797,808,809,812,811</elem>
			<elem id="7">795,797,803,801,810,811,814,813</elem>
			<elem id="8">797,799,805,803,811,812,815,814</elem>
			<elem id="9">807,808,811,810,816,817,820,819</elem>
			<elem id="10">808,809,812,811,817,818,821,820</elem>
			<elem id="11">810,811,814,813,819,820,823,822</elem>
			<elem id="12">811,812,815,814,820,821,824,823</elem>
			<elem id="13">816,817,820,819,825,826,829,828</elem>
			<elem id="14">817,818,821,820,826,827,830,829</elem>
			<elem id="15">819,820,823,822,828,829,832,831</elem>
			<elem id="16">820,821,824,823,829,830,833,832</elem>
			<elem id="17">825,826,829,828,834,835,838,837</elem>
			<elem id="18">826,827,830,829,835,836,839,838</elem>
			<elem id="19">828,829,832,831,837,838,841,840</elem>
			<elem id="20">829,830,833,832,838,839,842,841</elem>
<!-- ... 85 like lines cut -->
		</Elements>
		<Elements type="hex8" name="Part33">
			<elem id="106">417,453,459,423,418,454,460,424</elem>
			<elem id="107">418,454,460,424,419,455,461,425</elem>
			<elem id="108">419,455,461,425,420,456,462,426</elem>
			<elem id="109">420,456,462,426,421,457,463,427</elem>
			<elem id="110">421,457,463,427,422,458,464,428</elem>
			<elem id="111">423,459,465,429,424,460,466,430</elem>
			<elem id="112">424,460,466,430,425,461,467,431</elem>
			<elem id="113">425,461,467,431,426,462,468,432</elem>
			<elem id="114">426,462,468,432,427,463,469,433</elem>
			<elem id="115">427,463,469,433,428,464,470,434</elem>
			<elem id="116">429,465,471,435,430,466,472,436</elem>
			<elem id="117">430,466,472,436,431,467,473,437</elem>
			<elem id="118">431,467,473,437,432,468,474,438</elem>
			<elem id="119">432,468,474,438,433,469,475,439</elem>
			<elem id="120">433,469,475,439,434,470,476,440</elem>
			<elem id="121">435,471,477,441,436,472,478,442</elem>
			<elem id="122">436,472,478,442,437,473,479,443</elem>
			<elem id="123">437,473,479,443,438,474,480,444</elem>
			<elem id="124">438,474,480,444,439,475,481,445</elem>
			<elem id="125">439,475,481,445,440,476,482,446</elem>
<!-- ... 215 like lines cut -->
		</Elements>
		<Elements type="hex8" name="Part34">
			<elem id="341">33,69,75,39,34,70,76,40</elem>
			<elem id="342">34,70,76,40,35,71,77,41</elem>
			<elem id="343">35,71,77,41,36,72,78,42</elem>
			<elem id="344">36,72,78,42,37,73,79,43</elem>
			<elem id="345">37,73,79,43,38,74,80,44</elem>
			<elem id="346">39,75,81,45,40,76,82,46</elem>
			<elem id="347">40,76,82,46,41,77,83,47</elem>
			<elem id="348">41,77,83,47,42,78,84,48</elem>
			<elem id="349">42,78,84,48,43,79,85,49</elem>
			<elem id="350">43,79,85,49,44,80,86,50</elem>
			<elem id="351">45,81,87,51,46,82,88,52</elem>
			<elem id="352">46,82,88,52,47,83,89,53</elem>
			<elem id="353">47,83,89,53,48,84,90,54</elem>
			<elem id="354">48,84,90,54,49,85,91,55</elem>
			<elem id="355">49,85,91,55,50,86,92,56</elem>
			<elem id="356">51,87,93,57,52,88,94,58</elem>
			<elem id="357">52,88,94,58,53,89,95,59</elem>
			<elem id="358">53,89,95,59,54,90,96,60</elem>
			<elem id="359">54,90,96,60,55,91,97,61</elem>
			<elem id="360">55,91,97,61,56,92,98,62</elem>
<!-- ... 205 like lines cut -->
		</Elements>
		<Elements type="hex8" name="Part35">
			<elem id="566">1,17,21,5,2,18,22,6</elem>
			<elem id="567">2,18,22,6,3,19,23,7</elem>
			<elem id="568">3,19,23,7,4,20,24,8</elem>
			<elem id="569">5,21,25,9,6,22,26,10</elem>
			<elem id="570">6,22,26,10,7,23,27,11</elem>
			<elem id="571">7,23,27,11,8,24,28,12</elem>
			<elem id="572">9,25,29,13,10,26,30,14</elem>
			<elem id="573">10,26,30,14,11,27,31,15</elem>
			<elem id="574">11,27,31,15,12,28,32,16</elem>
		</Elements>
		<ElementSet name="unnamed_set01">
			<e id="92"/>
		</ElementSet>
	</Mesh>
	<MeshDomains>
		<SolidDomain name="Part32" mat="Ligament (Mooney-Rivlin)"/>
		<SolidDomain name="Part33" mat="Femur (Rigid Body)"/>
		<SolidDomain name="Part34" mat="Tibia (Rigid Body)"/>
		<SolidDomain name="Part35" mat="Patella (Rigid Body)"/>
	</MeshDomains>
	<Rigid>
		<rigid_constraint name="RigidFixed90" type="fix">
			<rb>2</rb>
			<dofs>Rx,Ry,Rz,Ru,Rw</dofs>
		</rigid_constraint>
		<rigid_constraint name="RigidDisplacement40" type="prescribe">
			<rb>2</rb>
			<dof>Rv</dof>
			<value lc="1">1</value>
		</rigid_constraint>
		<rigid_constraint name="RigidFixed91" type="fix">
			<rb>3</rb>
			<dofs>Rx,Ry,Rz,Ru,Rv,Rw</dofs>
		</rigid_constraint>
		<rigid_constraint name="RigidFixed92" type="fix">
			<rb>4</rb>
			<dofs>Rx,Ry,Rz,Ru,Rw</dofs>
		</rigid_constraint>
	</Rigid>
	<LoadData>
		<load_controller id="1" type="loadcurve">
			<interpolate>LINEAR</interpolate>
			<points>
				<point>0,0</point>
				<point>1,1.57</point>
			</points>
		</load_controller>
	</LoadData>
	<Output>
		<plotfile type="febio">
			<var type="displacement"/>
			<var type="stress"/>
		</plotfile>
		<logfile>
			<element_data data="Ez" elem_set="unnamed_set01"/>
		</logfile>
	</Output>
</febio_spec>
