<?xml version="1.0" encoding="ISO-8859-1"?>
<febio_spec version="3.0">
	<Module type="solid"/>
	<Control>
		<analysis>STATIC</analysis>
		<time_steps>10</time_steps>
		<step_size>0.1</step_size>
		<solver>
			<max_refs>15</max_refs>
			<max_ups>0</max_ups>
			<diverge_reform>1</diverge_reform>
			<reform_each_time_step>1</reform_each_time_step>
			<dtol>0.001</dtol>
			<etol>0.01</etol>
			<rtol>0</rtol>
			<lstol>0.9</lstol>
			<min_residual>1e-20</min_residual>
			<qnmethod>BFGS</qnmethod>
			<rhoi>-2</rhoi>
			<symmetric_stiffness>0</symmetric_stiffness>
		</solver>
		<time_stepper>
			<dtmin>0.01</dtmin>
			<dtmax>0.1</dtmax>
			<max_retries>5</max_retries>
			<opt_iter>10</opt_iter>
		</time_stepper>
	</Control>
	<Globals>
		<Constants>
			<T>0</T>
			<R>0</R>
			<Fc>0</Fc>
		</Constants>
	</Globals>
	<Material>
		<material id="1" name="Axle" type="rigid body">
			<density>1</density>
			<center_of_mass>0,0,0</center_of_mass>
		</material>
		<material id="2" name="Box" type="rigid body">
			<density>1</density>
		</material>
	</Material>
	<Mesh>
		<Nodes name="Object01">
			<node id="1">-0.35355339,-0.35355339,0</node>
			<node id="2">0,-0.35355339,0</node>
			<node id="3">0.35355339,-0.35355339,0</node>
			<node id="4">-0.35355339,0,0</node>
			<node id="5">0,0,0</node>
			<node id="6">0.35355339,0,0</node>
			<node id="7">-0.35355339,0.35355339,0</node>
			<node id="8">0,0.35355339,0</node>
			<node id="9">0.35355339,0.35355339,0</node>
			<node id="10">-0.35355339,-0.35355339,10</node>
			<node id="11">0,-0.35355339,10</node>
			<node id="12">0.35355339,-0.35355339,10</node>
			<node id="13">-0.35355339,0,10</node>
			<node id="14">0,0,10</node>
			<node id="15">0.35355339,0,10</node>
			<node id="16">-0.35355339,0.35355339,10</node>
			<node id="17">0,0.35355339,10</node>
			<node id="18">0.35355339,0.35355339,10</node>
			<node id="19">-0.70710679,-0.70710677,0</node>
			<node id="20">0,-1,0</node>
<!-- ... 406 like lines cut -->
		</Nodes>
		<Elements type="hex8" name="Part1">
			<elem id="1">1,35,209,55,10,40,212,56</elem>
			<elem id="2">35,36,210,209,40,39,213,212</elem>
			<elem id="3">36,37,211,210,39,38,214,213</elem>
			<elem id="4">37,2,41,211,38,11,46,214</elem>
			<elem id="5">55,209,206,54,56,212,215,57</elem>
			<elem id="6">209,210,207,206,212,213,216,215</elem>
			<elem id="7">210,211,208,207,213,214,217,216</elem>
			<elem id="8">211,41,42,208,214,46,45,217</elem>
			<elem id="9">54,206,203,53,57,215,218,58</elem>
			<elem id="10">206,207,204,203,215,216,219,218</elem>
			<elem id="11">207,208,205,204,216,217,220,219</elem>
			<elem id="12">208,42,43,205,217,45,44,220</elem>
			<elem id="13">53,203,49,4,58,218,50,13</elem>
			<elem id="14">203,204,48,49,218,219,51,50</elem>
			<elem id="15">204,205,47,48,219,220,52,51</elem>
			<elem id="16">205,43,5,47,220,44,14,52</elem>
			<elem id="17">2,59,227,41,11,64,230,46</elem>
			<elem id="18">59,60,228,227,64,63,231,230</elem>
			<elem id="19">60,61,229,228,63,62,232,231</elem>
			<elem id="20">61,3,65,229,62,12,70,232</elem>
<!-- ... 172 like lines cut -->
		</Elements>
		<Elements type="hex8" name="Part2">
			<elem id="193">419,423,425,421,420,424,426,422</elem>
		</Elements>
	</Mesh>
	<MeshDomains>
		<SolidDomain name="Part1" mat="Axle"/>
		<SolidDomain name="Part2" mat="Box"/>
	</MeshDomains>
	<Rigid>
		<rigid_constraint name="RigidFixed104" type="fix">
			<rb>1</rb>
			<dofs>Rx,Ry,Rz,Ru,Rv,Rw</dofs>
		</rigid_constraint>
		<rigid_connector type="rigid cylindrical joint" name="Joint01 Axle-Box cylindrical joint">
			<body_a>1</body_a>
			<body_b>2</body_b>
			<tolerance>0</tolerance>
			<gaptol>0.0001</gaptol>
			<angtol>0.0001</angtol>
			<force_penalty>1000</force_penalty>
			<moment_penalty>1000</moment_penalty>
			<auto_penalty>0</auto_penalty>
			<joint_origin>0,0,0</joint_origin>
			<joint_axis>0,0,1</joint_axis>
			<transverse_axis>1,0,0</transverse_axis>
			<minaug>0</minaug>
			<maxaug>10</maxaug>
			<prescribed_translation>1</prescribed_translation>
			<translation lc="1">10</translation>
			<force>0</force>
			<prescribed_rotation>1</prescribed_rotation>
			<rotation lc="2">1.5708</rotation>
			<moment>0</moment>
		</rigid_connector>
	</Rigid>
	<LoadData>
		<load_controller id="1" type="loadcurve">
			<interpolate>LINEAR</interpolate>
			<points>
				<point>0,0</point>
				<point>1,1</point>
			</points>
		</load_controller>
		<load_controller id="2" type="loadcurve">
			<interpolate>LINEAR</interpolate>
			<points>
				<point>0,0</point>
				<point>1,1</point>
			</points>
		</load_controller>
	</LoadData>
	<Output>
		<plotfile type="febio">
			<var type="acceleration"/>
			<var type="displacement"/>
			<var type="reaction forces"/>
			<var type="rigid acceleration"/>
			<var type="rigid angular acceleration"/>
			<var type="rigid angular position"/>
			<var type="rigid angular velocity"/>
			<var type="rigid force"/>
			<var type="rigid kinetic energy"/>
			<var type="rigid position"/>
			<var type="rigid torque"/>
			<var type="rigid velocity"/>
			<var type="stress"/>
			<var type="velocity"/>
		</plotfile>
		<logfile>
			<rigid_body_data data="qz"/>
		</logfile>
	</Output>
</febio_spec>
