<?xml version="1.0" encoding="ISO-8859-1"?>
<!--
A spherical joint with two prescribed rotations in a dynamic analysis.
-->
<febio_spec version="3.0">
	<Module type="solid"/>
	<Control>
		<analysis>DYNAMIC</analysis>
		<time_steps>100</time_steps>
		<step_size>0.01</step_size>
		<solver>
			<max_refs>15</max_refs>
			<max_ups>0</max_ups>
			<diverge_reform>1</diverge_reform>
			<reform_each_time_step>1</reform_each_time_step>
			<dtol>0.001</dtol>
			<etol>0.01</etol>
			<rtol>0</rtol>
			<lstol>0.9</lstol>
			<min_residual>1e-20</min_residual>
			<qnmethod>BFGS</qnmethod>
			<rhoi>0</rhoi>
			<symmetric_stiffness>0</symmetric_stiffness>
		</solver>
		<time_stepper>
			<dtmin>0.0001</dtmin>
			<dtmax>0.01</dtmax>
			<max_retries>5</max_retries>
			<opt_iter>10</opt_iter>
		</time_stepper>
	</Control>
	<Globals>
		<Constants>
			<T>0</T>
			<R>0</R>
			<Fc>0</Fc>
		</Constants>
	</Globals>
	<Material>
		<material id="1" name="Ground" type="rigid body">
			<density>1</density>
			<center_of_mass>0,0,0</center_of_mass>
		</material>
		<material id="2" name="Link" type="rigid body">
			<density>1e-09</density>
		</material>
	</Material>
	<Mesh>
		<Nodes name="Object01">
			<node id="1">-9.4734247e-09,-0.35355339,0.35355326</node>
			<node id="2">1.7763568e-15,-0.35355339,-1.3397448e-07</node>
			<node id="3">9.4734283e-09,-0.35355339,-0.35355352</node>
			<node id="4">-9.4734247e-09,0,0.35355326</node>
			<node id="5">1.7763568e-15,0,-1.3397448e-07</node>
			<node id="6">9.4734283e-09,0,-0.35355352</node>
			<node id="7">-9.4734247e-09,0.35355339,0.35355326</node>
			<node id="8">1.7763568e-15,0.35355339,-1.3397448e-07</node>
			<node id="9">9.4734283e-09,0.35355339,-0.35355352</node>
			<node id="10">10,-0.35355339,0.35355352</node>
			<node id="11">10,-0.35355339,1.3397448e-07</node>
			<node id="12">10,-0.35355339,-0.35355326</node>
			<node id="13">10,0,0.35355352</node>
			<node id="14">10,0,1.3397448e-07</node>
			<node id="15">10,0,-0.35355326</node>
			<node id="16">10,0.35355339,0.35355352</node>
			<node id="17">10,0.35355339,1.3397448e-07</node>
			<node id="18">10,0.35355339,-0.35355326</node>
			<node id="19">-1.8946851e-08,-0.70710677,0.70710666</node>
			<node id="20">1.7763568e-15,-1,-1.3397448e-07</node>
<!-- ... 406 like lines cut -->
		</Nodes>
		<Elements type="hex8" name="Part1">
			<elem id="1">1,35,209,55,10,40,212,56</elem>
			<elem id="2">35,36,210,209,40,39,213,212</elem>
			<elem id="3">36,37,211,210,39,38,214,213</elem>
			<elem id="4">37,2,41,211,38,11,46,214</elem>
			<elem id="5">55,209,206,54,56,212,215,57</elem>
			<elem id="6">209,210,207,206,212,213,216,215</elem>
			<elem id="7">210,211,208,207,213,214,217,216</elem>
			<elem id="8">211,41,42,208,214,46,45,217</elem>
			<elem id="9">54,206,203,53,57,215,218,58</elem>
			<elem id="10">206,207,204,203,215,216,219,218</elem>
			<elem id="11">207,208,205,204,216,217,220,219</elem>
			<elem id="12">208,42,43,205,217,45,44,220</elem>
			<elem id="13">53,203,49,4,58,218,50,13</elem>
			<elem id="14">203,204,48,49,218,219,51,50</elem>
			<elem id="15">204,205,47,48,219,220,52,51</elem>
			<elem id="16">205,43,5,47,220,44,14,52</elem>
			<elem id="17">2,59,227,41,11,64,230,46</elem>
			<elem id="18">59,60,228,227,64,63,231,230</elem>
			<elem id="19">60,61,229,228,63,62,232,231</elem>
			<elem id="20">61,3,65,229,62,12,70,232</elem>
<!-- ... 172 like lines cut -->
		</Elements>
		<Elements type="hex8" name="Part3">
			<elem id="193">419,423,425,421,420,424,426,422</elem>
		</Elements>
	</Mesh>
	<MeshDomains>
		<SolidDomain name="Part1" mat="Link"/>
		<SolidDomain name="Part3" mat="Link"/>
	</MeshDomains>
	<Rigid>
		<rigid_constraint name="RigidFixed109" type="fix">
			<rb>1</rb>
			<dofs>Rx,Ry,Rz,Ru,Rv,Rw</dofs>
		</rigid_constraint>
		<rigid_connector type="rigid spherical joint" name="Joint01">
			<body_a>1</body_a>
			<body_b>2</body_b>
			<tolerance>0.1</tolerance>
			<gaptol>0</gaptol>
			<angtol>0</angtol>
			<force_penalty>1000</force_penalty>
			<moment_penalty>1000</moment_penalty>
			<auto_penalty>0</auto_penalty>
			<joint_origin>0,0,0</joint_origin>
			<minaug>0</minaug>
			<maxaug>10</maxaug>
			<prescribed_rotation>1</prescribed_rotation>
			<rotation_x lc="1">1</rotation_x>
			<rotation_y lc="2">1</rotation_y>
			<rotation_z>0</rotation_z>
			<moment_x>0</moment_x>
			<moment_y>0</moment_y>
			<moment_z>0</moment_z>
		</rigid_connector>
	</Rigid>
	<LoadData>
		<load_controller id="1" type="loadcurve">
			<interpolate>SMOOTH</interpolate>
			<extend>REPEAT</extend>
			<points>
				<point>0,0</point>
				<point>0.010101010101,0.063338887136</point>
				<point>0.020202020202,0.125912126139</point>
				<point>0.030303030303,0.186959207915</point>
				<point>0.040404040404,0.245729872478</point>
				<point>0.0505050505051,0.301489161218</point>
				<point>0.0606060606061,0.353522382864</point>
				<point>0.0707070707071,0.401139965041</point>
				<point>0.0808080808081,0.443682163956</point>
				<point>0.0909090909091,0.480523605466</point>
				<point>0.10101010101,0.511077631639</point>
				<point>0.111111111111,0.534800427953</point>
				<point>0.121212121212,0.551194907418</point>
				<point>0.131313131313,0.559814329134</point>
				<point>0.141414141414,0.560265630227</point>
				<point>0.151515151515,0.552212451557</point>
				<point>0.161616161616,0.535377839211</point>
				<point>0.171717171717,0.509546605483</point>
				<point>0.181818181818,0.474567334807</point>
				<point>0.191919191919,0.430354021984</point>
<!-- ... 80 like lines cut -->
			</points>
		</load_controller>
		<load_controller id="2" type="loadcurve">
			<interpolate>SMOOTH</interpolate>
			<extend>REPEAT</extend>
			<points>
				<point>0,0</point>
				<point>0.010101010101,0.00402531416781</point>
				<point>0.020202020202,0.0160688394808</point>
				<point>0.030303030303,0.0360335201674</point>
				<point>0.040404040404,0.0637582482231</point>
				<point>0.0505050505051,0.0990188371586</point>
				<point>0.0606060606061,0.141529377918</point>
				<point>0.0707070707071,0.190943969683</point>
				<point>0.0808080808081,0.246858816259</point>
				<point>0.0909090909091,0.308814676772</point>
				<point>0.10101010101,0.376299657476</point>
				<point>0.111111111111,0.448752329657</point>
				<point>0.121212121212,0.525565156795</point>
				<point>0.131313131313,0.606088212508</point>
				<point>0.141414141414,0.689633169178</point>
				<point>0.151515151515,0.775477535681</point>
				<point>0.161616161616,0.862869121242</point>
				<point>0.171717171717,0.951030701196</point>
				<point>0.181818181818,1.03916485927</point>
				<point>0.191919191919,1.12645897996</point>
<!-- ... 80 like lines cut -->
			</points>
		</load_controller>
	</LoadData>
	<Output>
		<plotfile type="febio">
			<var type="acceleration"/>
			<var type="displacement"/>
			<var type="reaction forces"/>
			<var type="rigid acceleration"/>
			<var type="rigid angular acceleration"/>
			<var type="rigid angular position"/>
			<var type="rigid angular velocity"/>
			<var type="rigid force"/>
			<var type="rigid kinetic energy"/>
			<var type="rigid position"/>
			<var type="rigid torque"/>
			<var type="rigid velocity"/>
			<var type="stress"/>
			<var type="velocity"/>
		</plotfile>
		<logfile>
			<rigid_body_data data="My"/>
		</logfile>
	</Output>
</febio_spec>
