<?xml version="1.0" encoding="ISO-8859-1"?>
<!--
Problem Description:
	Forced response of rigid block connected to ground with prismatic joint, rigid spring and sinusoidal contractile force.
Main Features:
	Rigid contractile force
Secondary Features:
	Rigid spring, rigid prismatic joint
Materials:
	Rigid body
Degrees of Freedom: 6
Results:
	Steps Completed: 600
	Equilibrium Iterations: 615
	Right Hand Evaluations: 1215
	Siffness Reformations: 600
Comments:
	The analytical solution for the Z-position of the block is
	(8/5)(7+8 cos(2 pi t))(sin(pi t))^4
-->
<febio_spec version="3.0">
	<Module type="solid"/>
	<Control>
		<analysis>DYNAMIC</analysis>
		<time_steps>600</time_steps>
		<step_size>0.002</step_size>
		<solver>
			<max_refs>15</max_refs>
			<max_ups>10</max_ups>
			<diverge_reform>1</diverge_reform>
			<reform_each_time_step>1</reform_each_time_step>
			<dtol>0.001</dtol>
			<etol>0.01</etol>
			<rtol>0</rtol>
			<lstol>0.9</lstol>
			<min_residual>1e-20</min_residual>
			<qnmethod>BROYDEN</qnmethod>
			<rhoi>1</rhoi>
			<symmetric_stiffness>0</symmetric_stiffness>
		</solver>
		<time_stepper>
			<dtmin>0.0001</dtmin>
			<dtmax>0.002</dtmax>
			<max_retries>5</max_retries>
			<opt_iter>10</opt_iter>
		</time_stepper>
	</Control>
	<Globals>
		<Constants>
			<T>0</T>
			<R>0</R>
			<Fc>0</Fc>
		</Constants>
	</Globals>
	<Material>
		<material id="1" name="Mass" type="rigid body">
			<density>1</density>
			<center_of_mass>0,0,0.5</center_of_mass>
		</material>
		<material id="2" name="Ground" type="rigid body">
			<density>1</density>
			<center_of_mass>0,0,0</center_of_mass>
		</material>
	</Material>
	<Mesh>
		<Nodes name="Object03">
			<node id="1">-0.5,-0.5,0</node>
			<node id="2">-0.5,-0.5,1</node>
			<node id="3">-0.5,0.5,0</node>
			<node id="4">-0.5,0.5,1</node>
			<node id="5">0.5,-0.5,0</node>
			<node id="6">0.5,-0.5,1</node>
			<node id="7">0.5,0.5,0</node>
			<node id="8">0.5,0.5,1</node>
		</Nodes>
		<Elements type="hex8" name="Part1">
			<elem id="1">1,5,7,3,2,6,8,4</elem>
		</Elements>
	</Mesh>
	<MeshDomains>
		<SolidDomain name="Part1" mat="Mass"/>
	</MeshDomains>
	<Rigid>
		<rigid_constraint name="RigidConstraint1" type="fix">
			<rb>2</rb>
			<dofs>Rx,Ry,Rz,Ru,Rv,Rw</dofs>
		</rigid_constraint>
		<rigid_connector type="rigid spring" name="Spring">
			<body_a>2</body_a>
			<body_b>1</body_b>
			<k>157.91367</k>
			<insertion_a>0,0,-5</insertion_a>
			<insertion_b>0,0,0</insertion_b>
		</rigid_connector>
		<rigid_connector type="rigid contractile force" name="Contractile force">
			<body_a>2</body_a>
			<body_b>1</body_b>
			<f0 lc="1">315.82734</f0>
			<insertion_a>0,0,6</insertion_a>
			<insertion_b>0,0,1</insertion_b>
		</rigid_connector>
		<rigid_connector type="rigid prismatic joint" name="Prismatic joint">
			<body_a>2</body_a>
			<body_b>1</body_b>
			<tolerance>0</tolerance>
			<gaptol>0.0001</gaptol>
			<angtol>0.0001</angtol>
			<force_penalty>1000</force_penalty>
			<moment_penalty>1000</moment_penalty>
			<auto_penalty>1</auto_penalty>
			<joint_origin>0,0,0.5</joint_origin>
			<translation_axis>0,0,1</translation_axis>
			<transverse_axis>1,0,0</transverse_axis>
			<minaug>0</minaug>
			<maxaug>10</maxaug>
			<prescribed_translation>0</prescribed_translation>
			<translation>0</translation>
			<force>0</force>
		</rigid_connector>
	</Rigid>
	<LoadData>
		<load_controller id="1" type="loadcurve">
			<interpolate>SMOOTH</interpolate>
			<extend>REPEAT</extend>
			<points>
				<point>0,0</point>
				<point>0.0033333333333,0.000986635785845</point>
				<point>0.0066666666666,0.00394264934268</point>
				<point>0.0099999999999,0.00885637463548</point>
				<point>0.0133333333332,0.0157084194354</point>
				<point>0.0166666666665,0.0244717418519</point>
				<point>0.0199999999998,0.0351117570552</point>
				<point>0.0233333333331,0.0475864737661</point>
				<point>0.0266666666664,0.0618466599769</point>
				<point>0.0299999999997,0.0778360372475</point>
				<point>0.033333333333,0.0954915028107</point>
				<point>0.0366666666663,0.11474337861</point>
				<point>0.0399999999996,0.135515686287</point>
				<point>0.0433333333329,0.157726447033</point>
				<point>0.0466666666662,0.181288005122</point>
				<point>0.0499999999995,0.20610737385</point>
				<point>0.0533333333328,0.232086602506</point>
				<point>0.0566666666661,0.259123162944</point>
				<point>0.0599999999994,0.287110354212</point>
				<point>0.0633333333327,0.315937723652</point>
<!-- ... 81 like lines cut -->
			</points>
		</load_controller>
	</LoadData>
	<Output>
		<plotfile type="febio">
			<var type="displacement"/>
			<var type="rigid acceleration"/>
			<var type="rigid force"/>
			<var type="rigid position"/>
			<var type="rigid velocity"/>
			<var type="stress"/>
		</plotfile>
	</Output>
</febio_spec>
