<?xml version="1.0" encoding="ISO-8859-1"?>
<febio_spec version="3.0">
	<Module type="solid"/>
	<Control>
		<analysis>STATIC</analysis>
		<time_steps>10</time_steps>
		<step_size>0.1</step_size>
		<solver>
			<max_refs>15</max_refs>
			<max_ups>10</max_ups>
			<diverge_reform>1</diverge_reform>
			<reform_each_time_step>1</reform_each_time_step>
			<dtol>0.001</dtol>
			<etol>0.01</etol>
			<rtol>0</rtol>
			<lstol>0.9</lstol>
			<min_residual>1e-20</min_residual>
			<qnmethod>BFGS</qnmethod>
			<rhoi>-2</rhoi>
		</solver>
		<time_stepper>
			<dtmin>0.01</dtmin>
			<dtmax>0.1</dtmax>
			<max_retries>5</max_retries>
			<opt_iter>10</opt_iter>
		</time_stepper>
	</Control>
	<Globals>
		<Constants>
			<T>0</T>
			<R>0</R>
			<Fc>0</Fc>
		</Constants>
	</Globals>
	<Material>
		<material id="1" name="Material 3" type="neo-Hookean">
			<density>1</density>
			<E>10</E>
			<v>0.45</v>
		</material>
	</Material>
	<Mesh>
		<Nodes name="Object01">
			<node id="1">0,0,0</node>
			<node id="2">0,0.11466437,0</node>
			<node id="3">0,0.23591883,0</node>
			<node id="4">0,0.34785349,0</node>
			<node id="5">0.11466437,0,0</node>
			<node id="6">0.11667262,0.11667262,0</node>
			<node id="7">0.11796353,0.23592706,0</node>
			<node id="8">0.11512514,0.34537541,0</node>
			<node id="9">0.23591883,0,0</node>
			<node id="10">0.23592706,0.11796353,0</node>
			<node id="11">0.23334524,0.23334524,0</node>
			<node id="12">0.22431403,0.33647104,0</node>
			<node id="13">0.34785349,0,0</node>
			<node id="14">0.34537541,0.11512514,0</node>
			<node id="15">0.33647104,0.22431403,0</node>
			<node id="16">0.31819805,0.31819805,0</node>
			<node id="17">0.45654457,0,0</node>
			<node id="18">0.44592672,0.14864224,0</node>
			<node id="19">0.41906758,0.27937839,0</node>
			<node id="20">0.38301617,0.38301617,0</node>
<!-- ... 38 like lines cut -->
		</Nodes>
		<Elements type="quad4" name="Part42">
			<elem id="1">1,5,6,2</elem>
			<elem id="2">5,9,10,6</elem>
			<elem id="3">9,13,14,10</elem>
			<elem id="4">2,6,7,3</elem>
			<elem id="5">6,10,11,7</elem>
			<elem id="6">10,14,15,11</elem>
			<elem id="7">3,7,8,4</elem>
			<elem id="8">7,11,12,8</elem>
			<elem id="9">11,15,16,12</elem>
			<elem id="10">13,17,18,14</elem>
			<elem id="11">14,18,19,15</elem>
			<elem id="12">15,19,20,16</elem>
			<elem id="13">16,20,21,12</elem>
			<elem id="14">12,21,22,8</elem>
			<elem id="15">8,22,23,4</elem>
			<elem id="16">17,24,25,18</elem>
			<elem id="17">18,25,26,19</elem>
			<elem id="18">19,26,27,20</elem>
			<elem id="19">20,27,28,21</elem>
			<elem id="20">21,28,29,22</elem>
<!-- ... 25 like lines cut -->
		</Elements>
		<NodeSet name="FixedShellDisplacement01">
			<n id="1"/>
			<n id="5"/>
			<n id="9"/>
			<n id="13"/>
			<n id="17"/>
			<n id="24"/>
			<n id="31"/>
			<n id="38"/>
			<n id="45"/>
			<n id="52"/>
		</NodeSet>
		<NodeSet name="FixedShellDisplacement02">
			<n id="1"/>
			<n id="2"/>
			<n id="3"/>
			<n id="4"/>
			<n id="23"/>
			<n id="30"/>
			<n id="37"/>
			<n id="44"/>
			<n id="51"/>
			<n id="58"/>
		</NodeSet>
		<NodeSet name="FixedDisplacement01">
			<n id="1"/>
			<n id="5"/>
			<n id="9"/>
			<n id="13"/>
			<n id="17"/>
			<n id="24"/>
			<n id="31"/>
			<n id="38"/>
			<n id="45"/>
			<n id="52"/>
		</NodeSet>
		<NodeSet name="FixedDisplacement02">
			<n id="1"/>
			<n id="2"/>
			<n id="3"/>
			<n id="4"/>
			<n id="23"/>
			<n id="30"/>
			<n id="37"/>
			<n id="44"/>
			<n id="51"/>
			<n id="58"/>
		</NodeSet>
		<NodeSet name="FixedDisplacement03">
			<n id="52"/>
			<n id="53"/>
			<n id="54"/>
			<n id="55"/>
			<n id="56"/>
			<n id="57"/>
			<n id="58"/>
		</NodeSet>
		<Surface name="surface01">
			<quad4 id="1">1,5,6,2</quad4>
			<quad4 id="2">5,9,10,6</quad4>
			<quad4 id="3">9,13,14,10</quad4>
			<quad4 id="4">2,6,7,3</quad4>
			<quad4 id="5">6,10,11,7</quad4>
			<quad4 id="6">10,14,15,11</quad4>
			<quad4 id="7">3,7,8,4</quad4>
			<quad4 id="8">7,11,12,8</quad4>
			<quad4 id="9">11,15,16,12</quad4>
			<quad4 id="10">13,17,18,14</quad4>
			<quad4 id="11">14,18,19,15</quad4>
			<quad4 id="12">15,19,20,16</quad4>
			<quad4 id="13">16,20,21,12</quad4>
			<quad4 id="14">12,21,22,8</quad4>
			<quad4 id="15">8,22,23,4</quad4>
			<quad4 id="16">17,24,25,18</quad4>
			<quad4 id="17">18,25,26,19</quad4>
			<quad4 id="18">19,26,27,20</quad4>
			<quad4 id="19">20,27,28,21</quad4>
			<quad4 id="20">21,28,29,22</quad4>
<!-- ... 25 like lines cut -->
		</Surface>
		<ElementSet name="unnamed_set01">
			<e id="5"/>
		</ElementSet>
	</Mesh>
	<MeshDomains>
		<ShellDomain name="Part42" mat="Material 3"/>
	</MeshDomains>
	<MeshData>
		<ElementData var="shell thickness" elem_set="Part42">
			<e lid="1">0.01,0.01,0.01,0.01</e>
			<e lid="2">0.01,0.01,0.01,0.01</e>
			<e lid="3">0.01,0.01,0.01,0.01</e>
			<e lid="4">0.01,0.01,0.01,0.01</e>
			<e lid="5">0.01,0.01,0.01,0.01</e>
			<e lid="6">0.01,0.01,0.01,0.01</e>
			<e lid="7">0.01,0.01,0.01,0.01</e>
			<e lid="8">0.01,0.01,0.01,0.01</e>
			<e lid="9">0.01,0.01,0.01,0.01</e>
			<e lid="10">0.01,0.01,0.01,0.01</e>
			<e lid="11">0.01,0.01,0.01,0.01</e>
			<e lid="12">0.01,0.01,0.01,0.01</e>
			<e lid="13">0.01,0.01,0.01,0.01</e>
			<e lid="14">0.01,0.01,0.01,0.01</e>
			<e lid="15">0.01,0.01,0.01,0.01</e>
			<e lid="16">0.01,0.01,0.01,0.01</e>
			<e lid="17">0.01,0.01,0.01,0.01</e>
			<e lid="18">0.01,0.01,0.01,0.01</e>
			<e lid="19">0.01,0.01,0.01,0.01</e>
			<e lid="20">0.01,0.01,0.01,0.01</e>
<!-- ... 25 like lines cut -->
		</ElementData>
	</MeshData>
	<Boundary>
		<bc name="FixedShellDisplacement01" type="fix" node_set="FixedShellDisplacement01">
			<dofs>sy</dofs>
		</bc>
		<bc name="FixedShellDisplacement02" type="fix" node_set="FixedShellDisplacement02">
			<dofs>sx</dofs>
		</bc>
		<bc name="FixedDisplacement01" type="fix" node_set="FixedDisplacement01">
			<dofs>y</dofs>
		</bc>
		<bc name="FixedDisplacement02" type="fix" node_set="FixedDisplacement02">
			<dofs>x</dofs>
		</bc>
		<bc name="FixedDisplacement03" type="fix" node_set="FixedDisplacement03">
			<dofs>z</dofs>
		</bc>
	</Boundary>
	<Loads>
		<surface_load name="PressureLoad1" type="pressure" surface="surface01">
			<pressure lc="1">1</pressure>
			<linear>0</linear>
			<symmetric_stiffness>1</symmetric_stiffness>
		</surface_load>
	</Loads>
	<LoadData>
		<load_controller id="1" type="loadcurve">
			<interpolate>LINEAR</interpolate>
			<points>
				<point>0,0</point>
				<point>1,-0.008</point>
			</points>
		</load_controller>
	</LoadData>
	<Output>
		<plotfile type="febio">
			<var type="displacement"/>
			<var type="stress"/>
		</plotfile>
		<logfile>
			<element_data data="sx" elem_set="unnamed_set01"/>
		</logfile>
	</Output>
</febio_spec>
