<?xml version="1.0" encoding="ISO-8859-1"?>
<!--
A 20x4 element shell sheet is constrained in x,y,z on the left end and attached
by rigid contact to a rigid body with a prescribed rotation of 1 radian in time t=1.
-->
<febio_spec version="3.0">
	<Module type="solid"/>
	<Control>
		<analysis>STATIC</analysis>
		<time_steps>10</time_steps>
		<step_size>0.1</step_size>
		<solver>
			<max_refs>15</max_refs>
			<max_ups>0</max_ups>
			<diverge_reform>1</diverge_reform>
			<reform_each_time_step>1</reform_each_time_step>
			<dtol>0.001</dtol>
			<etol>0.01</etol>
			<rtol>0</rtol>
			<lstol>0.9</lstol>
			<min_residual>1e-20</min_residual>
			<qnmethod>BFGS</qnmethod>
			<rhoi>-2</rhoi>
		</solver>
		<time_stepper>
			<dtmin>0.01</dtmin>
			<dtmax>0.1</dtmax>
			<max_retries>5</max_retries>
			<opt_iter>10</opt_iter>
		</time_stepper>
	</Control>
	<Globals>
		<Constants>
			<T>0</T>
			<R>0</R>
			<Fc>0</Fc>
		</Constants>
	</Globals>
	<Material>
		<material id="1" name="Material 1" type="neo-Hookean">
			<density>1</density>
			<E>1</E>
			<v>0</v>
		</material>
		<material id="2" name="Material 2" type="rigid body">
			<density>1</density>
		</material>
	</Material>
	<Mesh>
		<Nodes name="Object01">
			<node id="1">-2.5,-0.5,0</node>
			<node id="2">-2.5,-0.25,0</node>
			<node id="3">-2.5,0,0</node>
			<node id="4">-2.5,0.25,0</node>
			<node id="5">-2.5,0.5,0</node>
			<node id="6">-2.25,-0.5,0</node>
			<node id="7">-2.25,-0.25,0</node>
			<node id="8">-2.25,0,0</node>
			<node id="9">-2.25,0.25,0</node>
			<node id="10">-2.25,0.5,0</node>
			<node id="11">-2,-0.5,0</node>
			<node id="12">-2,-0.25,0</node>
			<node id="13">-2,0,0</node>
			<node id="14">-2,0.25,0</node>
			<node id="15">-2,0.5,0</node>
			<node id="16">-1.75,-0.5,0</node>
			<node id="17">-1.75,-0.25,0</node>
			<node id="18">-1.75,0,0</node>
			<node id="19">-1.75,0.25,0</node>
			<node id="20">-1.75,0.5,0</node>
<!-- ... 93 like lines cut -->
		</Nodes>
		<Elements type="quad4" name="Part45">
			<elem id="1">1,6,7,2</elem>
			<elem id="2">2,7,8,3</elem>
			<elem id="3">3,8,9,4</elem>
			<elem id="4">4,9,10,5</elem>
			<elem id="5">6,11,12,7</elem>
			<elem id="6">7,12,13,8</elem>
			<elem id="7">8,13,14,9</elem>
			<elem id="8">9,14,15,10</elem>
			<elem id="9">11,16,17,12</elem>
			<elem id="10">12,17,18,13</elem>
			<elem id="11">13,18,19,14</elem>
			<elem id="12">14,19,20,15</elem>
			<elem id="13">16,21,22,17</elem>
			<elem id="14">17,22,23,18</elem>
			<elem id="15">18,23,24,19</elem>
			<elem id="16">19,24,25,20</elem>
			<elem id="17">21,26,27,22</elem>
			<elem id="18">22,27,28,23</elem>
			<elem id="19">23,28,29,24</elem>
			<elem id="20">24,29,30,25</elem>
<!-- ... 60 like lines cut -->
		</Elements>
		<Elements type="hex8" name="Part46">
			<elem id="81">106,110,112,108,107,111,113,109</elem>
		</Elements>
		<NodeSet name="FixedDisplacement01">
			<n id="1"/>
			<n id="2"/>
			<n id="3"/>
			<n id="4"/>
			<n id="5"/>
		</NodeSet>
		<NodeSet name="FixedDisplacement02">
			<n id="1"/>
			<n id="2"/>
			<n id="3"/>
			<n id="4"/>
			<n id="5"/>
		</NodeSet>
		<NodeSet name="FixedDisplacement03">
			<n id="1"/>
			<n id="2"/>
			<n id="3"/>
			<n id="4"/>
			<n id="5"/>
		</NodeSet>
		<NodeSet name="RigidNodeset 1">
			<n id="101"/>
			<n id="102"/>
			<n id="103"/>
			<n id="104"/>
			<n id="105"/>
		</NodeSet>
		<ElementSet name="unnamed_set01">
			<e id="1"/>
		</ElementSet>
	</Mesh>
	<MeshDomains>
		<ShellDomain name="Part45" mat="Material 1"/>
		<SolidDomain name="Part46" mat="Material 2"/>
	</MeshDomains>
	<MeshData>
		<ElementData var="shell thickness" elem_set="Part45">
			<e lid="1">0.01,0.01,0.01,0.01</e>
			<e lid="2">0.01,0.01,0.01,0.01</e>
			<e lid="3">0.01,0.01,0.01,0.01</e>
			<e lid="4">0.01,0.01,0.01,0.01</e>
			<e lid="5">0.01,0.01,0.01,0.01</e>
			<e lid="6">0.01,0.01,0.01,0.01</e>
			<e lid="7">0.01,0.01,0.01,0.01</e>
			<e lid="8">0.01,0.01,0.01,0.01</e>
			<e lid="9">0.01,0.01,0.01,0.01</e>
			<e lid="10">0.01,0.01,0.01,0.01</e>
			<e lid="11">0.01,0.01,0.01,0.01</e>
			<e lid="12">0.01,0.01,0.01,0.01</e>
			<e lid="13">0.01,0.01,0.01,0.01</e>
			<e lid="14">0.01,0.01,0.01,0.01</e>
			<e lid="15">0.01,0.01,0.01,0.01</e>
			<e lid="16">0.01,0.01,0.01,0.01</e>
			<e lid="17">0.01,0.01,0.01,0.01</e>
			<e lid="18">0.01,0.01,0.01,0.01</e>
			<e lid="19">0.01,0.01,0.01,0.01</e>
			<e lid="20">0.01,0.01,0.01,0.01</e>
<!-- ... 60 like lines cut -->
		</ElementData>
	</MeshData>
	<Boundary>
		<bc name="FixedDisplacement01" type="fix" node_set="FixedDisplacement01">
			<dofs>z</dofs>
		</bc>
		<bc name="FixedDisplacement02" type="fix" node_set="FixedDisplacement02">
			<dofs>y</dofs>
		</bc>
		<bc name="FixedDisplacement03" type="fix" node_set="FixedDisplacement03">
			<dofs>x</dofs>
		</bc>
		<bc name="RigidInterface02" type="rigid" node_set="RigidNodeset 1">
			<rb>2</rb>
		</bc>
	</Boundary>
	<Rigid>
		<rigid_constraint name="RigidFixed117" type="fix">
			<rb>2</rb>
			<dofs>Rx,Ry,Rz,Rv,Rw</dofs>
		</rigid_constraint>
		<rigid_constraint name="RigidDisplacement45" type="prescribe">
			<rb>2</rb>
			<dof>Ru</dof>
			<value lc="1">1</value>
		</rigid_constraint>
	</Rigid>
	<Contact>
	</Contact>
	<LoadData>
		<load_controller id="1" type="loadcurve">
			<interpolate>LINEAR</interpolate>
			<points>
				<point>0,0</point>
				<point>1,1</point>
			</points>
		</load_controller>
	</LoadData>
	<Output>
		<plotfile type="febio">
			<var type="displacement"/>
			<var type="stress"/>
		</plotfile>
		<logfile>
			<element_data data="sx" elem_set="unnamed_set01"/>
		</logfile>
	</Output>
</febio_spec>
