<?xml version="1.0" encoding="ISO-8859-1"?>
<!--
Problem Description:
	A disk composed of non-uniform triangular shell elements is deflected at the
	center by a rigid cylinder with a prescribed z-displacement of 0.005 units
	at time t=1.
Main Features:
	Shells
	Rigid Contact
Secondary Features:
	Non-uniform element distribution
Materials:
	St.Venant-Kirchhoff
Degrees of Freedom: 3673
Results
	Steps Completed: 10
	Equilibrium Iterations: 59
	Right Hand Evaluations: 71
	Siffness Reformations: 10
	Other:
		The maximum effective strain is 0.193 at time t=1.
Comments:
	
-->
<febio_spec version="3.0">
	<Module type="solid"/>
	<Control>
		<analysis>STATIC</analysis>
		<time_steps>10</time_steps>
		<step_size>0.1</step_size>
		<solver>
			<max_refs>15</max_refs>
			<max_ups>10</max_ups>
			<diverge_reform>1</diverge_reform>
			<reform_each_time_step>1</reform_each_time_step>
			<dtol>0.001</dtol>
			<etol>0.01</etol>
			<rtol>1e+10</rtol>
			<lstol>0.9</lstol>
			<min_residual>1e-20</min_residual>
			<qnmethod>BFGS</qnmethod>
			<rhoi>-2</rhoi>
		</solver>
		<time_stepper>
			<dtmin>0.01</dtmin>
			<dtmax>0.1</dtmax>
			<max_retries>5</max_retries>
			<opt_iter>10</opt_iter>
		</time_stepper>
	</Control>
	<Globals>
		<Constants>
			<T>0</T>
			<R>0</R>
			<Fc>0</Fc>
		</Constants>
	</Globals>
	<Material>
		<material id="1" name="membrane" type="isotropic elastic">
			<density>1</density>
			<E>1396000</E>
			<v>0.386</v>
		</material>
		<material id="2" name="needle" type="rigid body">
			<density>1</density>
		</material>
	</Material>
	<Mesh>
		<Nodes name="Object01">
			<node id="1">-0.025,0,0</node>
			<node id="2">0,-0.025,0</node>
			<node id="3">0,0,0</node>
			<node id="4">0,0.025,0</node>
			<node id="5">0.025,0,0</node>
			<node id="6">-0.02478611,-0.0032632404,0</node>
			<node id="7">-0.024148096,-0.006470661,0</node>
			<node id="8">-0.023096868,-0.009567376,0</node>
			<node id="9">-0.021650484,-0.012500263,0</node>
			<node id="10">-0.01983367,-0.015219249,0</node>
			<node id="11">-0.017677504,-0.017677836,0</node>
			<node id="12">-0.015218878,-0.019833955,0</node>
			<node id="13">-0.012499856,-0.021650718,0</node>
			<node id="14">-0.009566966,-0.023097038,0</node>
			<node id="15">-0.006470389,-0.024148169,0</node>
			<node id="16">-0.003263108,-0.024786128,0</node>
			<node id="17">-0.02478611,0.0032632404,0</node>
			<node id="18">-0.024148096,0.006470661,0</node>
			<node id="19">-0.023096868,0.009567376,0</node>
			<node id="20">-0.021650484,0.012500263,0</node>
<!-- ... 1045 like lines cut -->
		</Nodes>
		<Elements type="hex8" name="Part1">
			<elem id="1">680,687,688,681,873,880,881,874</elem>
			<elem id="2">681,688,689,682,874,881,882,875</elem>
			<elem id="3">682,689,690,683,875,882,883,876</elem>
			<elem id="4">683,690,691,684,876,883,884,877</elem>
			<elem id="5">684,691,692,685,877,884,885,878</elem>
			<elem id="6">685,692,693,686,878,885,886,879</elem>
			<elem id="7">687,694,695,688,880,887,888,881</elem>
			<elem id="8">688,695,696,689,881,888,889,882</elem>
			<elem id="9">689,696,697,690,882,889,890,883</elem>
			<elem id="10">690,697,698,691,883,890,891,884</elem>
			<elem id="11">691,698,699,692,884,891,892,885</elem>
			<elem id="12">692,699,700,693,885,892,893,886</elem>
			<elem id="13">694,701,702,695,887,894,895,888</elem>
			<elem id="14">695,702,703,696,888,895,896,889</elem>
			<elem id="15">696,703,704,697,889,896,897,890</elem>
			<elem id="16">697,704,705,698,890,897,898,891</elem>
			<elem id="17">698,705,706,699,891,898,899,892</elem>
			<elem id="18">699,706,707,700,892,899,900,893</elem>
			<elem id="19">701,708,709,702,894,901,902,895</elem>
			<elem id="20">702,709,710,703,895,902,903,896</elem>
<!-- ... 160 like lines cut -->
		</Elements>
		<Elements type="tri3" name="Part2">
			<elem id="181">9,10,306</elem>
			<elem id="182">306,10,372</elem>
			<elem id="183">11,12,313</elem>
			<elem id="184">131,11,313</elem>
			<elem id="185">10,11,131</elem>
			<elem id="186">10,131,372</elem>
			<elem id="187">131,178,372</elem>
			<elem id="188">131,313,317</elem>
			<elem id="189">257,131,317</elem>
			<elem id="190">87,131,257</elem>
			<elem id="191">67,257,317</elem>
			<elem id="192">317,156,386</elem>
			<elem id="193">313,156,317</elem>
			<elem id="194">12,156,313</elem>
			<elem id="195">156,12,248</elem>
			<elem id="196">12,13,248</elem>
			<elem id="197">248,13,377</elem>
			<elem id="198">253,248,377</elem>
			<elem id="199">120,253,377</elem>
			<elem id="200">120,377,382</elem>
<!-- ... 1288 like lines cut -->
		</Elements>
		<NodeSet name="FixedDisplacement01">
			<n id="1"/>
			<n id="2"/>
			<n id="4"/>
			<n id="5"/>
			<n id="6"/>
			<n id="7"/>
			<n id="8"/>
			<n id="9"/>
			<n id="10"/>
			<n id="11"/>
			<n id="12"/>
			<n id="13"/>
			<n id="14"/>
			<n id="15"/>
			<n id="16"/>
			<n id="17"/>
			<n id="18"/>
			<n id="19"/>
			<n id="20"/>
			<n id="21"/>
<!-- ... 28 like lines cut -->
		</NodeSet>
		<NodeSet name="RigidNodeset 1">
			<n id="3"/>
			<n id="564"/>
			<n id="570"/>
			<n id="585"/>
			<n id="589"/>
			<n id="597"/>
			<n id="613"/>
			<n id="624"/>
			<n id="625"/>
			<n id="631"/>
			<n id="633"/>
			<n id="634"/>
			<n id="635"/>
			<n id="637"/>
			<n id="643"/>
			<n id="644"/>
			<n id="645"/>
			<n id="648"/>
			<n id="652"/>
			<n id="654"/>
<!-- ... 23 like lines cut -->
		</NodeSet>
		<ElementSet name="unnamed_set01">
			<e id="783"/>
		</ElementSet>
	</Mesh>
	<MeshDomains>
		<SolidDomain name="Part1" mat="needle"/>
		<ShellDomain name="Part2" mat="membrane"/>
	</MeshDomains>
	<MeshData>
		<ElementData var="shell thickness" elem_set="Part2">
			<e lid="1">0.0001,0.0001,0.0001</e>
			<e lid="2">0.0001,0.0001,0.0001</e>
			<e lid="3">0.0001,0.0001,0.0001</e>
			<e lid="4">0.0001,0.0001,0.0001</e>
			<e lid="5">0.0001,0.0001,0.0001</e>
			<e lid="6">0.0001,0.0001,0.0001</e>
			<e lid="7">0.0001,0.0001,0.0001</e>
			<e lid="8">0.0001,0.0001,0.0001</e>
			<e lid="9">0.0001,0.0001,0.0001</e>
			<e lid="10">0.0001,0.0001,0.0001</e>
			<e lid="11">0.0001,0.0001,0.0001</e>
			<e lid="12">0.0001,0.0001,0.0001</e>
			<e lid="13">0.0001,0.0001,0.0001</e>
			<e lid="14">0.0001,0.0001,0.0001</e>
			<e lid="15">0.0001,0.0001,0.0001</e>
			<e lid="16">0.0001,0.0001,0.0001</e>
			<e lid="17">0.0001,0.0001,0.0001</e>
			<e lid="18">0.0001,0.0001,0.0001</e>
			<e lid="19">0.0001,0.0001,0.0001</e>
			<e lid="20">0.0001,0.0001,0.0001</e>
<!-- ... 1288 like lines cut -->
		</ElementData>
	</MeshData>
	<Boundary>
		<bc name="FixedDisplacement01" type="fix" node_set="FixedDisplacement01">
			<dofs>x,y,z</dofs>
		</bc>
		<bc name="RigidInterface02" type="rigid" node_set="RigidNodeset 1">
			<rb>2</rb>
		</bc>
	</Boundary>
	<Rigid>
		<rigid_constraint name="RigidDisplacement46" type="prescribe">
			<rb>2</rb>
			<dof>Rz</dof>
			<value lc="1">1</value>
		</rigid_constraint>
		<rigid_constraint name="RigidFixed118" type="fix">
			<rb>2</rb>
			<dofs>Rx,Ry,Ru,Rv,Rw</dofs>
		</rigid_constraint>
	</Rigid>
	<Contact>
	</Contact>
	<LoadData>
		<load_controller id="1" type="loadcurve">
			<interpolate>LINEAR</interpolate>
			<points>
				<point>0,0</point>
				<point>1,0.005</point>
			</points>
		</load_controller>
	</LoadData>
	<Output>
		<plotfile type="febio">
			<var type="displacement"/>
			<var type="stress"/>
		</plotfile>
		<logfile>
			<element_data data="sy" elem_set="unnamed_set01"/>
		</logfile>
	</Output>
</febio_spec>
