<?xml version="1.0" encoding="ISO-8859-1"?>
<!--
Shell verification problem.  Compare to analytical solution by Batoz.
A 32x64 element shell sheet is twisted by constraining one end and applying
equal but opposite forces of 1 N to the corners of the non-constrained end.
-->
<febio_spec version="3.0">
	<Module type="solid"/>
	<Control>
		<analysis>STATIC</analysis>
		<time_steps>10</time_steps>
		<step_size>0.1</step_size>
		<solver>
			<max_refs>15</max_refs>
			<max_ups>10</max_ups>
			<diverge_reform>1</diverge_reform>
			<reform_each_time_step>1</reform_each_time_step>
			<dtol>0.001</dtol>
			<etol>0.01</etol>
			<rtol>0</rtol>
			<lstol>0.9</lstol>
			<min_residual>1e-20</min_residual>
			<qnmethod>BFGS</qnmethod>
			<rhoi>-2</rhoi>
		</solver>
		<time_stepper>
			<dtmin>0.01</dtmin>
			<dtmax>0.1</dtmax>
			<max_retries>5</max_retries>
			<opt_iter>10</opt_iter>
		</time_stepper>
	</Control>
	<Globals>
		<Constants>
			<T>0</T>
			<R>0</R>
			<Fc>0</Fc>
		</Constants>
	</Globals>
	<Material>
		<material id="1" name="Material 1" type="isotropic elastic">
			<density>1</density>
			<E>10000000</E>
			<v>0.25</v>
		</material>
	</Material>
	<Mesh>
		<Nodes name="Object01">
			<node id="1">-1,-0.5,0</node>
			<node id="2">-1,-0.46875,0</node>
			<node id="3">-1,-0.4375,0</node>
			<node id="4">-1,-0.40625,0</node>
			<node id="5">-1,-0.375,0</node>
			<node id="6">-1,-0.34375,0</node>
			<node id="7">-1,-0.3125,0</node>
			<node id="8">-1,-0.28125,0</node>
			<node id="9">-1,-0.25,0</node>
			<node id="10">-1,-0.21875,0</node>
			<node id="11">-1,-0.1875,0</node>
			<node id="12">-1,-0.15625,0</node>
			<node id="13">-1,-0.125,0</node>
			<node id="14">-1,-0.09375,0</node>
			<node id="15">-1,-0.0625,0</node>
			<node id="16">-1,-0.03125,0</node>
			<node id="17">-1,0,0</node>
			<node id="18">-1,0.03125,0</node>
			<node id="19">-1,0.0625,0</node>
			<node id="20">-1,0.09375,0</node>
<!-- ... 2125 like lines cut -->
		</Nodes>
		<Elements type="quad4" name="Part2">
			<elem id="1">1,34,35,2</elem>
			<elem id="2">2,35,36,3</elem>
			<elem id="3">3,36,37,4</elem>
			<elem id="4">4,37,38,5</elem>
			<elem id="5">5,38,39,6</elem>
			<elem id="6">6,39,40,7</elem>
			<elem id="7">7,40,41,8</elem>
			<elem id="8">8,41,42,9</elem>
			<elem id="9">9,42,43,10</elem>
			<elem id="10">10,43,44,11</elem>
			<elem id="11">11,44,45,12</elem>
			<elem id="12">12,45,46,13</elem>
			<elem id="13">13,46,47,14</elem>
			<elem id="14">14,47,48,15</elem>
			<elem id="15">15,48,49,16</elem>
			<elem id="16">16,49,50,17</elem>
			<elem id="17">17,50,51,18</elem>
			<elem id="18">18,51,52,19</elem>
			<elem id="19">19,52,53,20</elem>
			<elem id="20">20,53,54,21</elem>
<!-- ... 2028 like lines cut -->
		</Elements>
		<NodeSet name="FixedShellDisplacement01">
			<n id="1"/>
			<n id="2"/>
			<n id="3"/>
			<n id="4"/>
			<n id="5"/>
			<n id="6"/>
			<n id="7"/>
			<n id="8"/>
			<n id="9"/>
			<n id="10"/>
			<n id="11"/>
			<n id="12"/>
			<n id="13"/>
			<n id="14"/>
			<n id="15"/>
			<n id="16"/>
			<n id="17"/>
			<n id="18"/>
			<n id="19"/>
			<n id="20"/>
<!-- ... 13 like lines cut -->
		</NodeSet>
		<NodeSet name="FixedShellDisplacement02">
			<n id="1"/>
			<n id="2"/>
			<n id="3"/>
			<n id="4"/>
			<n id="5"/>
			<n id="6"/>
			<n id="7"/>
			<n id="8"/>
			<n id="9"/>
			<n id="10"/>
			<n id="11"/>
			<n id="12"/>
			<n id="13"/>
			<n id="14"/>
			<n id="15"/>
			<n id="16"/>
			<n id="17"/>
			<n id="18"/>
			<n id="19"/>
			<n id="20"/>
<!-- ... 13 like lines cut -->
		</NodeSet>
		<NodeSet name="FixedShellDisplacement03">
			<n id="1"/>
			<n id="2"/>
			<n id="3"/>
			<n id="4"/>
			<n id="5"/>
			<n id="6"/>
			<n id="7"/>
			<n id="8"/>
			<n id="9"/>
			<n id="10"/>
			<n id="11"/>
			<n id="12"/>
			<n id="13"/>
			<n id="14"/>
			<n id="15"/>
			<n id="16"/>
			<n id="17"/>
			<n id="18"/>
			<n id="19"/>
			<n id="20"/>
<!-- ... 13 like lines cut -->
		</NodeSet>
		<NodeSet name="FixedDisplacement01">
			<n id="1"/>
			<n id="2"/>
			<n id="3"/>
			<n id="4"/>
			<n id="5"/>
			<n id="6"/>
			<n id="7"/>
			<n id="8"/>
			<n id="9"/>
			<n id="10"/>
			<n id="11"/>
			<n id="12"/>
			<n id="13"/>
			<n id="14"/>
			<n id="15"/>
			<n id="16"/>
			<n id="17"/>
			<n id="18"/>
			<n id="19"/>
			<n id="20"/>
<!-- ... 13 like lines cut -->
		</NodeSet>
		<NodeSet name="FixedDisplacement02">
			<n id="1"/>
			<n id="2"/>
			<n id="3"/>
			<n id="4"/>
			<n id="5"/>
			<n id="6"/>
			<n id="7"/>
			<n id="8"/>
			<n id="9"/>
			<n id="10"/>
			<n id="11"/>
			<n id="12"/>
			<n id="13"/>
			<n id="14"/>
			<n id="15"/>
			<n id="16"/>
			<n id="17"/>
			<n id="18"/>
			<n id="19"/>
			<n id="20"/>
<!-- ... 13 like lines cut -->
		</NodeSet>
		<NodeSet name="FixedDisplacement03">
			<n id="1"/>
			<n id="2"/>
			<n id="3"/>
			<n id="4"/>
			<n id="5"/>
			<n id="6"/>
			<n id="7"/>
			<n id="8"/>
			<n id="9"/>
			<n id="10"/>
			<n id="11"/>
			<n id="12"/>
			<n id="13"/>
			<n id="14"/>
			<n id="15"/>
			<n id="16"/>
			<n id="17"/>
			<n id="18"/>
			<n id="19"/>
			<n id="20"/>
<!-- ... 13 like lines cut -->
		</NodeSet>
		<NodeSet name="ForceNodeset01">
			<n id="2145"/>
		</NodeSet>
		<NodeSet name="ForceNodeset02">
			<n id="2113"/>
		</NodeSet>
		<ElementSet name="unnamed_set01">
			<e id="1968"/>
		</ElementSet>
	</Mesh>
	<MeshDomains>
		<ShellDomain name="Part2" mat="Material 1"/>
	</MeshDomains>
	<MeshData>
		<ElementData var="shell thickness" elem_set="Part2">
			<e lid="1">0.05,0.05,0.05,0.05</e>
			<e lid="2">0.05,0.05,0.05,0.05</e>
			<e lid="3">0.05,0.05,0.05,0.05</e>
			<e lid="4">0.05,0.05,0.05,0.05</e>
			<e lid="5">0.05,0.05,0.05,0.05</e>
			<e lid="6">0.05,0.05,0.05,0.05</e>
			<e lid="7">0.05,0.05,0.05,0.05</e>
			<e lid="8">0.05,0.05,0.05,0.05</e>
			<e lid="9">0.05,0.05,0.05,0.05</e>
			<e lid="10">0.05,0.05,0.05,0.05</e>
			<e lid="11">0.05,0.05,0.05,0.05</e>
			<e lid="12">0.05,0.05,0.05,0.05</e>
			<e lid="13">0.05,0.05,0.05,0.05</e>
			<e lid="14">0.05,0.05,0.05,0.05</e>
			<e lid="15">0.05,0.05,0.05,0.05</e>
			<e lid="16">0.05,0.05,0.05,0.05</e>
			<e lid="17">0.05,0.05,0.05,0.05</e>
			<e lid="18">0.05,0.05,0.05,0.05</e>
			<e lid="19">0.05,0.05,0.05,0.05</e>
			<e lid="20">0.05,0.05,0.05,0.05</e>
<!-- ... 2028 like lines cut -->
		</ElementData>
	</MeshData>
	<Boundary>
		<bc name="FixedShellDisplacement01" type="fix" node_set="FixedShellDisplacement01">
			<dofs>sz</dofs>
		</bc>
		<bc name="FixedShellDisplacement02" type="fix" node_set="FixedShellDisplacement02">
			<dofs>sy</dofs>
		</bc>
		<bc name="FixedShellDisplacement03" type="fix" node_set="FixedShellDisplacement03">
			<dofs>sx</dofs>
		</bc>
		<bc name="FixedDisplacement01" type="fix" node_set="FixedDisplacement01">
			<dofs>z</dofs>
		</bc>
		<bc name="FixedDisplacement02" type="fix" node_set="FixedDisplacement02">
			<dofs>y</dofs>
		</bc>
		<bc name="FixedDisplacement03" type="fix" node_set="FixedDisplacement03">
			<dofs>x</dofs>
		</bc>
	</Boundary>
	<Loads>
		<nodal_load name="ForceLoad01" type="nodal_load" node_set="ForceNodeset01">
			<dof>z</dof>
			<scale lc="1">1</scale>
		</nodal_load>
		<nodal_load name="ForceLoad02" type="nodal_load" node_set="ForceNodeset02">
			<dof>z</dof>
			<scale lc="2">1</scale>
		</nodal_load>
	</Loads>
	<LoadData>
		<load_controller id="1" type="loadcurve">
			<interpolate>LINEAR</interpolate>
			<points>
				<point>0,0</point>
				<point>1,-1</point>
			</points>
		</load_controller>
		<load_controller id="2" type="loadcurve">
			<interpolate>LINEAR</interpolate>
			<points>
				<point>0,0</point>
				<point>1,1</point>
			</points>
		</load_controller>
	</LoadData>
	<Output>
		<plotfile type="febio">
			<var type="displacement"/>
			<var type="stress"/>
		</plotfile>
		<logfile>
			<element_data data="sy" elem_set="unnamed_set01"/>
		</logfile>
	</Output>
</febio_spec>
