<?xml version="1.0" encoding="ISO-8859-1"?>
<!--
Shell verification problem.  Compare to analytical solution for cantilever beam.
A 10x1 quad8 element shell sheet is fixed at one end and
loaded at the opposite end using a downward force of
0.001. The exact solution for the tip deflection is 0.004.
-->
<febio_spec version="3.0">
	<Module type="solid"/>
	<Control>
		<analysis>STATIC</analysis>
		<time_steps>10</time_steps>
		<step_size>0.1</step_size>
		<solver>
			<max_refs>15</max_refs>
			<max_ups>0</max_ups>
			<diverge_reform>1</diverge_reform>
			<reform_each_time_step>1</reform_each_time_step>
			<dtol>0.001</dtol>
			<etol>0.01</etol>
			<rtol>0</rtol>
			<lstol>0.9</lstol>
			<min_residual>1e-20</min_residual>
			<qnmethod>BFGS</qnmethod>
			<rhoi>-2</rhoi>
		</solver>
		<time_stepper>
			<dtmin>0.01</dtmin>
			<dtmax>0.1</dtmax>
			<max_retries>5</max_retries>
			<opt_iter>10</opt_iter>
		</time_stepper>
	</Control>
	<Globals>
		<Constants>
			<T>0</T>
			<R>0</R>
			<Fc>0</Fc>
		</Constants>
	</Globals>
	<Material>
		<material id="1" name="Material1" type="neo-Hookean">
			<density>1</density>
			<E>1000000</E>
			<v>0</v>
		</material>
	</Material>
	<Mesh>
		<Nodes name="Object01">
			<node id="1">0,0,0</node>
			<node id="2">0,0.5,0</node>
			<node id="3">0,1,0</node>
			<node id="4">0.5,0,0</node>
			<node id="5">0.5,1,0</node>
			<node id="6">1,0,0</node>
			<node id="7">1,0.5,0</node>
			<node id="8">1,1,0</node>
			<node id="9">1.5,0,0</node>
			<node id="10">1.5,1,0</node>
			<node id="11">2,0,0</node>
			<node id="12">2,0.5,0</node>
			<node id="13">2,1,0</node>
			<node id="14">2.5,0,0</node>
			<node id="15">2.5,1,0</node>
			<node id="16">3,0,0</node>
			<node id="17">3,0.5,0</node>
			<node id="18">3,1,0</node>
			<node id="19">3.5,0,0</node>
			<node id="20">3.5,1,0</node>
<!-- ... 33 like lines cut -->
		</Nodes>
		<Elements type="quad8" name="Part2">
			<elem id="1">1,6,8,3,4,7,5,2</elem>
			<elem id="2">6,11,13,8,9,12,10,7</elem>
			<elem id="3">11,16,18,13,14,17,15,12</elem>
			<elem id="4">16,21,23,18,19,22,20,17</elem>
			<elem id="5">21,26,28,23,24,27,25,22</elem>
			<elem id="6">26,31,33,28,29,32,30,27</elem>
			<elem id="7">31,36,38,33,34,37,35,32</elem>
			<elem id="8">36,41,43,38,39,42,40,37</elem>
			<elem id="9">41,46,48,43,44,47,45,42</elem>
			<elem id="10">46,51,53,48,49,52,50,47</elem>
		</Elements>
		<NodeSet name="FixedDisplacement01">
			<n id="1"/>
			<n id="2"/>
			<n id="3"/>
		</NodeSet>
		<NodeSet name="FixedShellDisplacement01">
			<n id="1"/>
			<n id="2"/>
			<n id="3"/>
		</NodeSet>
		<NodeSet name="ForceNodeset01">
			<n id="51"/>
			<n id="53"/>
		</NodeSet>
		<ElementSet name="unnamed_set01">
			<e id="1"/>
		</ElementSet>
	</Mesh>
	<MeshDomains>
		<ShellDomain name="Part2" mat="Material1"/>
	</MeshDomains>
	<MeshData>
		<ElementData var="shell thickness" elem_set="Part2">
			<e lid="1">0.1,0.1,0.1,0.1,0.1,0.1,0.1,0.1</e>
			<e lid="2">0.1,0.1,0.1,0.1,0.1,0.1,0.1,0.1</e>
			<e lid="3">0.1,0.1,0.1,0.1,0.1,0.1,0.1,0.1</e>
			<e lid="4">0.1,0.1,0.1,0.1,0.1,0.1,0.1,0.1</e>
			<e lid="5">0.1,0.1,0.1,0.1,0.1,0.1,0.1,0.1</e>
			<e lid="6">0.1,0.1,0.1,0.1,0.1,0.1,0.1,0.1</e>
			<e lid="7">0.1,0.1,0.1,0.1,0.1,0.1,0.1,0.1</e>
			<e lid="8">0.1,0.1,0.1,0.1,0.1,0.1,0.1,0.1</e>
			<e lid="9">0.1,0.1,0.1,0.1,0.1,0.1,0.1,0.1</e>
			<e lid="10">0.1,0.1,0.1,0.1,0.1,0.1,0.1,0.1</e>
		</ElementData>
	</MeshData>
	<Boundary>
		<bc name="FixedDisplacement01" type="fix" node_set="FixedDisplacement01">
			<dofs>x,y,z</dofs>
		</bc>
		<bc name="FixedShellDisplacement01" type="fix" node_set="FixedShellDisplacement01">
			<dofs>sx,sy,sz</dofs>
		</bc>
	</Boundary>
	<Loads>
		<nodal_load name="ForceLoad01" type="nodal_load" node_set="ForceNodeset01">
			<dof>z</dof>
			<scale lc="1">-0.0005</scale>
		</nodal_load>
	</Loads>
	<LoadData>
		<load_controller id="1" type="loadcurve">
			<interpolate>SMOOTH</interpolate>
			<points>
				<point>0,0</point>
				<point>1,1</point>
			</points>
		</load_controller>
	</LoadData>
	<Output>
		<plotfile type="febio">
			<var type="displacement"/>
			<var type="shell director"/>
			<var type="shell strain"/>
			<var type="shell thickness"/>
			<var type="stress"/>
		</plotfile>
		<logfile>
			<element_data data="sx" elem_set="unnamed_set01"/>
		</logfile>
	</Output>
</febio_spec>
