<?xml version="1.0" encoding="ISO-8859-1"?>
<!--
Problem Description:
	Shell verification problem.  Compare to analytical solution by Batoz.
	A 4x8 quad8 element shell sheet is twisted by constraining one end and applying
	equal but opposite forces of 1 N to the corners of the non-constrained end.
Main Features:
	Shells
	Nodal Force
Secondary Features:
	tri6
Materials:
	Isotropic Elastic
Degrees of Freedom: 864
Results
	Steps Completed: 10
	Equilibrium Iterations: 20
	Right Hand Evaluations: 30
	Siffness Reformations: 20
	Other:
		The sheet has a maximum displacement of 0.005299 units at time t=1.
Comments:
-->
<febio_spec version="3.0">
	<Module type="solid"/>
	<Control>
		<analysis>STATIC</analysis>
		<time_steps>10</time_steps>
		<step_size>0.1</step_size>
		<solver>
			<max_refs>15</max_refs>
			<max_ups>0</max_ups>
			<diverge_reform>1</diverge_reform>
			<reform_each_time_step>1</reform_each_time_step>
			<dtol>0.001</dtol>
			<etol>0.01</etol>
			<rtol>0</rtol>
			<lstol>0.9</lstol>
			<min_residual>1e-20</min_residual>
			<qnmethod>BFGS</qnmethod>
			<rhoi>-2</rhoi>
		</solver>
		<time_stepper>
			<dtmin>0.01</dtmin>
			<dtmax>0.1</dtmax>
			<max_retries>5</max_retries>
			<opt_iter>10</opt_iter>
		</time_stepper>
	</Control>
	<Globals>
		<Constants>
			<T>0</T>
			<R>0</R>
			<Fc>0</Fc>
		</Constants>
	</Globals>
	<Material>
		<material id="1" name="St-Venant Kirchhoff" type="isotropic elastic">
			<density>1</density>
			<E>10000000</E>
			<v>0.25</v>
		</material>
	</Material>
	<Mesh>
		<Nodes name="Object01">
			<node id="1">-1,-0.5,0</node>
			<node id="2">-1,-0.25,0</node>
			<node id="3">-1,0,0</node>
			<node id="4">-1,0.25,0</node>
			<node id="5">-1,0.5,0</node>
			<node id="6">-0.75,-0.5,0</node>
			<node id="7">-0.75,-0.25,0</node>
			<node id="8">-0.75,0,0</node>
			<node id="9">-0.75,0.25,0</node>
			<node id="10">-0.75,0.5,0</node>
			<node id="11">-0.5,-0.5,0</node>
			<node id="12">-0.5,-0.25,0</node>
			<node id="13">-0.5,0,0</node>
			<node id="14">-0.5,0.25,0</node>
			<node id="15">-0.5,0.5,0</node>
			<node id="16">-0.25,-0.5,0</node>
			<node id="17">-0.25,-0.25,0</node>
			<node id="18">-0.25,0,0</node>
			<node id="19">-0.25,0.25,0</node>
			<node id="20">-0.25,0.5,0</node>
<!-- ... 133 like lines cut -->
		</Nodes>
		<Elements type="tri6" name="Part2">
			<elem id="1">1,6,7,47,59,46</elem>
			<elem id="2">1,7,2,46,49,48</elem>
			<elem id="3">2,7,8,49,62,50</elem>
			<elem id="4">2,8,3,50,52,51</elem>
			<elem id="5">3,8,9,52,65,53</elem>
			<elem id="6">3,9,4,53,55,54</elem>
			<elem id="7">4,9,10,55,68,56</elem>
			<elem id="8">4,10,5,56,58,57</elem>
			<elem id="9">6,11,12,60,72,61</elem>
			<elem id="10">6,12,7,61,63,59</elem>
			<elem id="11">7,12,13,63,75,64</elem>
			<elem id="12">7,13,8,64,66,62</elem>
			<elem id="13">8,13,14,66,78,67</elem>
			<elem id="14">8,14,9,67,69,65</elem>
			<elem id="15">9,14,15,69,81,70</elem>
			<elem id="16">9,15,10,70,71,68</elem>
			<elem id="17">11,16,17,74,85,73</elem>
			<elem id="18">11,17,12,73,76,72</elem>
			<elem id="19">12,17,18,76,88,77</elem>
			<elem id="20">12,18,13,77,79,75</elem>
<!-- ... 44 like lines cut -->
		</Elements>
		<NodeSet name="FixedDisplacement01">
			<n id="1"/>
			<n id="2"/>
			<n id="3"/>
			<n id="4"/>
			<n id="5"/>
			<n id="48"/>
			<n id="51"/>
			<n id="54"/>
			<n id="57"/>
		</NodeSet>
		<NodeSet name="FixedShellDisplacement01">
			<n id="1"/>
			<n id="2"/>
			<n id="3"/>
			<n id="4"/>
			<n id="5"/>
			<n id="48"/>
			<n id="51"/>
			<n id="54"/>
			<n id="57"/>
		</NodeSet>
		<NodeSet name="ForceNodeset01">
			<n id="45"/>
		</NodeSet>
		<NodeSet name="ForceNodeset02">
			<n id="41"/>
		</NodeSet>
		<ElementSet name="unnamed_set01">
			<e id="1"/>
		</ElementSet>
	</Mesh>
	<MeshDomains>
		<ShellDomain name="Part2" mat="St-Venant Kirchhoff"/>
	</MeshDomains>
	<MeshData>
		<ElementData var="shell thickness" elem_set="Part2">
			<e lid="1">0.05,0.05,0.05,0.05,0.05,0.05</e>
			<e lid="2">0.05,0.05,0.05,0.05,0.05,0.05</e>
			<e lid="3">0.05,0.05,0.05,0.05,0.05,0.05</e>
			<e lid="4">0.05,0.05,0.05,0.05,0.05,0.05</e>
			<e lid="5">0.05,0.05,0.05,0.05,0.05,0.05</e>
			<e lid="6">0.05,0.05,0.05,0.05,0.05,0.05</e>
			<e lid="7">0.05,0.05,0.05,0.05,0.05,0.05</e>
			<e lid="8">0.05,0.05,0.05,0.05,0.05,0.05</e>
			<e lid="9">0.05,0.05,0.05,0.05,0.05,0.05</e>
			<e lid="10">0.05,0.05,0.05,0.05,0.05,0.05</e>
			<e lid="11">0.05,0.05,0.05,0.05,0.05,0.05</e>
			<e lid="12">0.05,0.05,0.05,0.05,0.05,0.05</e>
			<e lid="13">0.05,0.05,0.05,0.05,0.05,0.05</e>
			<e lid="14">0.05,0.05,0.05,0.05,0.05,0.05</e>
			<e lid="15">0.05,0.05,0.05,0.05,0.05,0.05</e>
			<e lid="16">0.05,0.05,0.05,0.05,0.05,0.05</e>
			<e lid="17">0.05,0.05,0.05,0.05,0.05,0.05</e>
			<e lid="18">0.05,0.05,0.05,0.05,0.05,0.05</e>
			<e lid="19">0.05,0.05,0.05,0.05,0.05,0.05</e>
			<e lid="20">0.05,0.05,0.05,0.05,0.05,0.05</e>
<!-- ... 44 like lines cut -->
		</ElementData>
	</MeshData>
	<Boundary>
		<bc name="FixedDisplacement01" type="fix" node_set="FixedDisplacement01">
			<dofs>x,y,z</dofs>
		</bc>
		<bc name="FixedShellDisplacement01" type="fix" node_set="FixedShellDisplacement01">
			<dofs>sx,sy,sz</dofs>
		</bc>
	</Boundary>
	<Loads>
		<nodal_load name="ForceLoad01" type="nodal_load" node_set="ForceNodeset01">
			<dof>z</dof>
			<scale lc="1">1</scale>
		</nodal_load>
		<nodal_load name="ForceLoad02" type="nodal_load" node_set="ForceNodeset02">
			<dof>z</dof>
			<scale lc="2">-1</scale>
		</nodal_load>
	</Loads>
	<LoadData>
		<load_controller id="1" type="loadcurve">
			<interpolate>SMOOTH</interpolate>
			<points>
				<point>0,0</point>
				<point>1,1</point>
			</points>
		</load_controller>
		<load_controller id="2" type="loadcurve">
			<interpolate>SMOOTH</interpolate>
			<points>
				<point>0,0</point>
				<point>1,1</point>
			</points>
		</load_controller>
	</LoadData>
	<Output>
		<plotfile type="febio">
			<var type="displacement"/>
			<var type="reaction forces"/>
			<var type="shell director"/>
			<var type="shell strain"/>
			<var type="shell thickness"/>
			<var type="stress"/>
		</plotfile>
		<logfile>
			<element_data data="sx" elem_set="unnamed_set01"/>
		</logfile>
	</Output>
</febio_spec>
