<?xml version="1.0" encoding="ISO-8859-1"?>
<febio_spec version="3.0">
	<Module type="solid"/>
	<Control>
		<analysis>STATIC</analysis>
		<time_steps>10</time_steps>
		<step_size>0.1</step_size>
		<solver>
			<max_refs>15</max_refs>
			<max_ups>0</max_ups>
			<diverge_reform>1</diverge_reform>
			<reform_each_time_step>1</reform_each_time_step>
			<dtol>0.001</dtol>
			<etol>0.01</etol>
			<rtol>0</rtol>
			<lstol>0.9</lstol>
			<min_residual>1e-20</min_residual>
			<qnmethod>BFGS</qnmethod>
			<rhoi>-2</rhoi>
			<symmetric_stiffness>0</symmetric_stiffness>
		</solver>
		<time_stepper>
			<dtmin>0.01</dtmin>
			<dtmax>0.1</dtmax>
			<max_retries>5</max_retries>
			<opt_iter>10</opt_iter>
		</time_stepper>
	</Control>
	<Globals>
		<Constants>
			<T>293</T>
			<R>0.008314</R>
			<Fc>0.0965</Fc>
		</Constants>
	</Globals>
	<Material>
		<material id="1" name="box1" type="Mooney-Rivlin">
			<density>1</density>
			<c1>100</c1>
			<c2>0</c2>
			<k>933.333</k>
		</material>
		<material id="2" name="shell1" type="Mooney-Rivlin">
			<density>1</density>
			<c1>100</c1>
			<c2>0</c2>
			<k>933.333</k>
		</material>
		<material id="3" name="shell2" type="Mooney-Rivlin">
			<density>1</density>
			<c1>10000</c1>
			<c2>0</c2>
			<k>93333.3</k>
		</material>
		<material id="4" name="box2" type="Mooney-Rivlin">
			<density>1</density>
			<c1>100</c1>
			<c2>0</c2>
			<k>933.333</k>
		</material>
	</Material>
	<Mesh>
		<Nodes name="Object01">
			<node id="1">-0.5,-0.5,0</node>
			<node id="2">-0.5,-0.5,0.0625</node>
			<node id="3">-0.5,-0.5,0.125</node>
			<node id="4">-0.5,-0.5,0.1875</node>
			<node id="5">-0.5,-0.5,0.25</node>
			<node id="6">-0.5,-0.5,0.3125</node>
			<node id="7">-0.5,-0.5,0.375</node>
			<node id="8">-0.5,-0.5,0.4375</node>
			<node id="9">-0.5,-0.5,0.5</node>
			<node id="10">-0.5,-0.4,0</node>
			<node id="11">-0.5,-0.4,0.125</node>
			<node id="12">-0.5,-0.4,0.25</node>
			<node id="13">-0.5,-0.4,0.375</node>
			<node id="14">-0.5,-0.4,0.5</node>
			<node id="15">-0.5,-0.3,0</node>
			<node id="16">-0.5,-0.3,0.0625</node>
			<node id="17">-0.5,-0.3,0.125</node>
			<node id="18">-0.5,-0.3,0.1875</node>
			<node id="19">-0.5,-0.3,0.25</node>
			<node id="20">-0.5,-0.3,0.3125</node>
<!-- ... 624 like lines cut -->
		</Nodes>
		<Elements type="hex20" name="Part3">
			<elem id="1">1,110,124,15,3,112,126,17,80,119,85,10,81,120,86,11,2,111,125,16</elem>
			<elem id="2">3,112,126,17,5,114,128,19,81,120,86,11,82,121,87,12,4,113,127,18</elem>
			<elem id="3">5,114,128,19,7,116,130,21,82,121,87,12,83,122,88,13,6,115,129,20</elem>
			<elem id="4">7,116,130,21,9,118,132,23,83,122,88,13,84,123,89,14,8,117,131,22</elem>
			<elem id="5">15,124,138,29,17,126,140,31,85,133,90,24,86,134,91,25,16,125,139,30</elem>
			<elem id="6">17,126,140,31,19,128,142,33,86,134,91,25,87,135,92,26,18,127,141,32</elem>
			<elem id="7">19,128,142,33,21,130,144,35,87,135,92,26,88,136,93,27,20,129,143,34</elem>
			<elem id="8">21,130,144,35,23,132,146,37,88,136,93,27,89,137,94,28,22,131,145,36</elem>
			<elem id="9">29,138,152,43,31,140,154,45,90,147,95,38,91,148,96,39,30,139,153,44</elem>
			<elem id="10">31,140,154,45,33,142,156,47,91,148,96,39,92,149,97,40,32,141,155,46</elem>
			<elem id="11">33,142,156,47,35,144,158,49,92,149,97,40,93,150,98,41,34,143,157,48</elem>
			<elem id="12">35,144,158,49,37,146,160,51,93,150,98,41,94,151,99,42,36,145,159,50</elem>
			<elem id="13">43,152,166,57,45,154,168,59,95,161,100,52,96,162,101,53,44,153,167,58</elem>
			<elem id="14">45,154,168,59,47,156,170,61,96,162,101,53,97,163,102,54,46,155,169,60</elem>
			<elem id="15">47,156,170,61,49,158,172,63,97,163,102,54,98,164,103,55,48,157,171,62</elem>
			<elem id="16">49,158,172,63,51,160,174,65,98,164,103,55,99,165,104,56,50,159,173,64</elem>
			<elem id="17">57,166,180,71,59,168,182,73,100,175,105,66,101,176,106,67,58,167,181,72</elem>
			<elem id="18">59,168,182,73,61,170,184,75,101,176,106,67,102,177,107,68,60,169,183,74</elem>
			<elem id="19">61,170,184,75,63,172,186,77,102,177,107,68,103,178,108,69,62,171,185,76</elem>
			<elem id="20">63,172,186,77,65,174,188,79,103,178,108,69,104,179,109,70,64,173,187,78</elem>
<!-- ... 80 like lines cut -->
		</Elements>
		<Elements type="quad8" name="Part2">
			<elem id="101">9,118,132,23,84,123,89,14</elem>
			<elem id="102">23,132,146,37,89,137,94,28</elem>
			<elem id="103">37,146,160,51,94,151,99,42</elem>
			<elem id="104">51,160,174,65,99,165,104,56</elem>
			<elem id="105">65,174,188,79,104,179,109,70</elem>
			<elem id="106">118,227,241,132,193,232,198,123</elem>
			<elem id="107">132,241,255,146,198,246,203,137</elem>
			<elem id="108">146,255,269,160,203,260,208,151</elem>
			<elem id="109">160,269,283,174,208,274,213,165</elem>
			<elem id="110">174,283,297,188,213,288,218,179</elem>
			<elem id="111">227,336,350,241,302,341,307,232</elem>
			<elem id="112">241,350,364,255,307,355,312,246</elem>
			<elem id="113">255,364,378,269,312,369,317,260</elem>
			<elem id="114">269,378,392,283,317,383,322,274</elem>
			<elem id="115">283,392,406,297,322,397,327,288</elem>
			<elem id="116">336,445,459,350,411,450,416,341</elem>
			<elem id="117">350,459,473,364,416,464,421,355</elem>
			<elem id="118">364,473,487,378,421,478,426,369</elem>
			<elem id="119">378,487,501,392,426,492,431,383</elem>
			<elem id="120">392,501,515,406,431,506,436,397</elem>
<!-- ... 5 like lines cut -->
		</Elements>
		<Elements type="hex20" name="Part4">
			<elem id="126">625,637,642,630,627,639,644,632,633,640,635,628,634,641,636,629,626,638,643,631</elem>
		</Elements>
		<Elements type="quad8" name="Part5">
			<elem id="127">625,630,642,637,628,635,640,633</elem>
		</Elements>
		<NodeSet name="box1-z">
			<n id="1"/>
			<n id="10"/>
			<n id="15"/>
			<n id="24"/>
			<n id="29"/>
			<n id="38"/>
			<n id="43"/>
			<n id="52"/>
			<n id="57"/>
			<n id="66"/>
			<n id="71"/>
			<n id="80"/>
			<n id="85"/>
			<n id="90"/>
			<n id="95"/>
			<n id="100"/>
			<n id="105"/>
			<n id="110"/>
			<n id="119"/>
			<n id="124"/>
<!-- ... 76 like lines cut -->
		</NodeSet>
		<NodeSet name="box1z">
			<n id="9"/>
			<n id="14"/>
			<n id="23"/>
			<n id="28"/>
			<n id="37"/>
			<n id="42"/>
			<n id="51"/>
			<n id="56"/>
			<n id="65"/>
			<n id="70"/>
			<n id="79"/>
			<n id="84"/>
			<n id="89"/>
			<n id="94"/>
			<n id="99"/>
			<n id="104"/>
			<n id="109"/>
			<n id="118"/>
			<n id="123"/>
			<n id="132"/>
<!-- ... 76 like lines cut -->
		</NodeSet>
		<NodeSet name="box2-z">
			<n id="625"/>
			<n id="628"/>
			<n id="630"/>
			<n id="633"/>
			<n id="635"/>
			<n id="637"/>
			<n id="640"/>
			<n id="642"/>
		</NodeSet>
		<NodeSet name="box2z">
			<n id="627"/>
			<n id="629"/>
			<n id="632"/>
			<n id="634"/>
			<n id="636"/>
			<n id="639"/>
			<n id="641"/>
			<n id="644"/>
		</NodeSet>
		<NodeSet name="box2z">
			<n id="627"/>
			<n id="629"/>
			<n id="632"/>
			<n id="634"/>
			<n id="636"/>
			<n id="639"/>
			<n id="641"/>
			<n id="644"/>
		</NodeSet>
		<NodeSet name="unnamed_set01">
			<n id="4"/>
		</NodeSet>
		<NodeSet name="unnamed_set01">
			<n id="4"/>
		</NodeSet>
		<Surface name="PrimarySurface01">
			<quad8 id="1">630,642,637,625,635,640,633,628</quad8>
		</Surface>
		<Surface name="SecondarySurface01">
			<quad8 id="1">9,118,132,23,84,123,89,14</quad8>
			<quad8 id="2">23,132,146,37,89,137,94,28</quad8>
			<quad8 id="3">37,146,160,51,94,151,99,42</quad8>
			<quad8 id="4">51,160,174,65,99,165,104,56</quad8>
			<quad8 id="5">65,174,188,79,104,179,109,70</quad8>
			<quad8 id="6">118,227,241,132,193,232,198,123</quad8>
			<quad8 id="7">132,241,255,146,198,246,203,137</quad8>
			<quad8 id="8">146,255,269,160,203,260,208,151</quad8>
			<quad8 id="9">160,269,283,174,208,274,213,165</quad8>
			<quad8 id="10">174,283,297,188,213,288,218,179</quad8>
			<quad8 id="11">227,336,350,241,302,341,307,232</quad8>
			<quad8 id="12">241,350,364,255,307,355,312,246</quad8>
			<quad8 id="13">255,364,378,269,312,369,317,260</quad8>
			<quad8 id="14">269,378,392,283,317,383,322,274</quad8>
			<quad8 id="15">283,392,406,297,322,397,327,288</quad8>
			<quad8 id="16">336,445,459,350,411,450,416,341</quad8>
			<quad8 id="17">350,459,473,364,416,464,421,355</quad8>
			<quad8 id="18">364,473,487,378,421,478,426,369</quad8>
			<quad8 id="19">378,487,501,392,426,492,431,383</quad8>
			<quad8 id="20">392,501,515,406,431,506,436,397</quad8>
<!-- ... 5 like lines cut -->
		</Surface>
		<SurfacePair name="TCInterface01">
			<primary>PrimarySurface01</primary>
			<secondary>SecondarySurface01</secondary>
		</SurfacePair>
	</Mesh>
	<MeshDomains>
		<SolidDomain name="Part3" mat="box1"/>
		<ShellDomain name="Part2" mat="shell1"/>
		<SolidDomain name="Part4" mat="box2"/>
		<ShellDomain name="Part5" mat="shell2"/>
	</MeshDomains>
	<MeshData>
		<ElementData var="shell thickness" elem_set="Part2">
			<e lid="1">0.01,0.01,0.01,0.01,0.01,0.01,0.01,0.01</e>
			<e lid="2">0.01,0.01,0.01,0.01,0.01,0.01,0.01,0.01</e>
			<e lid="3">0.01,0.01,0.01,0.01,0.01,0.01,0.01,0.01</e>
			<e lid="4">0.01,0.01,0.01,0.01,0.01,0.01,0.01,0.01</e>
			<e lid="5">0.01,0.01,0.01,0.01,0.01,0.01,0.01,0.01</e>
			<e lid="6">0.01,0.01,0.01,0.01,0.01,0.01,0.01,0.01</e>
			<e lid="7">0.01,0.01,0.01,0.01,0.01,0.01,0.01,0.01</e>
			<e lid="8">0.01,0.01,0.01,0.01,0.01,0.01,0.01,0.01</e>
			<e lid="9">0.01,0.01,0.01,0.01,0.01,0.01,0.01,0.01</e>
			<e lid="10">0.01,0.01,0.01,0.01,0.01,0.01,0.01,0.01</e>
			<e lid="11">0.01,0.01,0.01,0.01,0.01,0.01,0.01,0.01</e>
			<e lid="12">0.01,0.01,0.01,0.01,0.01,0.01,0.01,0.01</e>
			<e lid="13">0.01,0.01,0.01,0.01,0.01,0.01,0.01,0.01</e>
			<e lid="14">0.01,0.01,0.01,0.01,0.01,0.01,0.01,0.01</e>
			<e lid="15">0.01,0.01,0.01,0.01,0.01,0.01,0.01,0.01</e>
			<e lid="16">0.01,0.01,0.01,0.01,0.01,0.01,0.01,0.01</e>
			<e lid="17">0.01,0.01,0.01,0.01,0.01,0.01,0.01,0.01</e>
			<e lid="18">0.01,0.01,0.01,0.01,0.01,0.01,0.01,0.01</e>
			<e lid="19">0.01,0.01,0.01,0.01,0.01,0.01,0.01,0.01</e>
			<e lid="20">0.01,0.01,0.01,0.01,0.01,0.01,0.01,0.01</e>
<!-- ... 5 like lines cut -->
		</ElementData>
		<ElementData var="shell thickness" elem_set="Part5">
			<e lid="1">0.01,0.01,0.01,0.01,0.01,0.01,0.01,0.01</e>
		</ElementData>
	</MeshData>
	<Boundary>
		<bc name="FixedDisplacement01" type="fix" node_set="box1-z">
			<dofs>x,y,z</dofs>
		</bc>
		<bc name="FixedDisplacement02" type="fix" node_set="box1z">
			<dofs>x,y</dofs>
		</bc>
		<bc name="FixedDisplacement03" type="fix" node_set="box2-z">
			<dofs>x,y</dofs>
		</bc>
		<bc name="FixedDisplacement04" type="fix" node_set="box2z">
			<dofs>x,y</dofs>
		</bc>
		<bc name="box2z" type="prescribe" node_set="box2z">
			<dof>z</dof>
			<scale lc="1">1</scale>
			<relative>0</relative>
		</bc>
	</Boundary>
	<Contact>
		<contact type="sliding-elastic" name="TCInterface01" surface_pair="TCInterface01">
			<laugon>0</laugon>
			<tolerance>0.01</tolerance>
			<gaptol>0</gaptol>
			<penalty>100</penalty>
			<auto_penalty>1</auto_penalty>
			<two_pass>1</two_pass>
			<search_tol>0.01</search_tol>
			<symmetric_stiffness>0</symmetric_stiffness>
			<search_radius>1</search_radius>
			<seg_up>0</seg_up>
			<tension>0</tension>
			<minaug>0</minaug>
			<maxaug>10</maxaug>
			<fric_coeff>0</fric_coeff>
			<smooth_aug>0</smooth_aug>
			<node_reloc>0</node_reloc>
			<flip_primary>0</flip_primary>
			<flip_secondary>0</flip_secondary>
			<knmult>0</knmult>
			<update_penalty>0</update_penalty>
		</contact>
	</Contact>
	<LoadData>
		<load_controller id="1" type="loadcurve">
			<interpolate>LINEAR</interpolate>
			<points>
				<point>0,0</point>
				<point>0.1,-0.5</point>
				<point>1,-0.7</point>
			</points>
		</load_controller>
	</LoadData>
	<Output>
		<plotfile type="febio">
			<var type="contact gap"/>
			<var type="contact pressure"/>
			<var type="displacement"/>
			<var type="relative volume"/>
			<var type="shell director"/>
			<var type="shell strain"/>
			<var type="stress"/>
		</plotfile>
		<logfile>
			<node_data data="z" node_set="unnamed_set01"/>
		</logfile>
	</Output>
</febio_spec>
