<?xml version="1.0" encoding="ISO-8859-1"?>
<!--
Block (20-node hex) with shell(quad8) is compressed and slided against a larger
and softer block(20-node hex) with shell(quad8).
Top face of top blox is prescribed z dispacement of -0.64 and then x displacement of -0.8 at t=2.
Both shells have same stiffness to converge
-->
<febio_spec version="3.0">
	<Module type="solid"/>
	<Control>
		<analysis>STATIC</analysis>
		<time_steps>200</time_steps>
		<step_size>0.01</step_size>
		<solver>
			<max_refs>15</max_refs>
			<max_ups>0</max_ups>
			<diverge_reform>1</diverge_reform>
			<reform_each_time_step>1</reform_each_time_step>
			<dtol>0.001</dtol>
			<etol>0.01</etol>
			<rtol>0</rtol>
			<lstol>0.9</lstol>
			<min_residual>1e-20</min_residual>
			<qnmethod>BFGS</qnmethod>
			<rhoi>-2</rhoi>
			<symmetric_stiffness>0</symmetric_stiffness>
		</solver>
		<time_stepper>
			<dtmin>0.01</dtmin>
			<dtmax>0.1</dtmax>
			<max_retries>5</max_retries>
			<opt_iter>15</opt_iter>
		</time_stepper>
	</Control>
	<Globals>
		<Constants>
			<T>293</T>
			<R>0.008314</R>
			<Fc>0.0965</Fc>
		</Constants>
	</Globals>
	<Material>
		<material id="1" name="mat1" type="neo-Hookean">
			<density>1</density>
			<E>1</E>
			<v>0</v>
		</material>
		<material id="2" name="mat2" type="neo-Hookean">
			<density>1</density>
			<E>100</E>
			<v>0</v>
		</material>
		<material id="3" name="mat3" type="neo-Hookean">
			<density>1</density>
			<E>100</E>
			<v>0</v>
		</material>
		<material id="4" name="mat4" type="neo-Hookean">
			<density>1</density>
			<E>100</E>
			<v>0</v>
		</material>
	</Material>
	<Mesh>
		<Nodes name="Object01">
			<node id="1">-0.5,-0.5,0</node>
			<node id="2">-0.5,-0.5,0.0625</node>
			<node id="3">-0.5,-0.5,0.125</node>
			<node id="4">-0.5,-0.5,0.1875</node>
			<node id="5">-0.5,-0.5,0.25</node>
			<node id="6">-0.5,-0.5,0.3125</node>
			<node id="7">-0.5,-0.5,0.375</node>
			<node id="8">-0.5,-0.5,0.4375</node>
			<node id="9">-0.5,-0.5,0.5</node>
			<node id="10">-0.5,-0.4,0</node>
			<node id="11">-0.5,-0.4,0.125</node>
			<node id="12">-0.5,-0.4,0.25</node>
			<node id="13">-0.5,-0.4,0.375</node>
			<node id="14">-0.5,-0.4,0.5</node>
			<node id="15">-0.5,-0.3,0</node>
			<node id="16">-0.5,-0.3,0.0625</node>
			<node id="17">-0.5,-0.3,0.125</node>
			<node id="18">-0.5,-0.3,0.1875</node>
			<node id="19">-0.5,-0.3,0.25</node>
			<node id="20">-0.5,-0.3,0.3125</node>
<!-- ... 1360 like lines cut -->
		</Nodes>
		<Elements type="hex20" name="Part1">
			<elem id="1">1,110,124,15,3,112,126,17,80,119,85,10,81,120,86,11,2,111,125,16</elem>
			<elem id="2">3,112,126,17,5,114,128,19,81,120,86,11,82,121,87,12,4,113,127,18</elem>
			<elem id="3">5,114,128,19,7,116,130,21,82,121,87,12,83,122,88,13,6,115,129,20</elem>
			<elem id="4">7,116,130,21,9,118,132,23,83,122,88,13,84,123,89,14,8,117,131,22</elem>
			<elem id="5">15,124,138,29,17,126,140,31,85,133,90,24,86,134,91,25,16,125,139,30</elem>
			<elem id="6">17,126,140,31,19,128,142,33,86,134,91,25,87,135,92,26,18,127,141,32</elem>
			<elem id="7">19,128,142,33,21,130,144,35,87,135,92,26,88,136,93,27,20,129,143,34</elem>
			<elem id="8">21,130,144,35,23,132,146,37,88,136,93,27,89,137,94,28,22,131,145,36</elem>
			<elem id="9">29,138,152,43,31,140,154,45,90,147,95,38,91,148,96,39,30,139,153,44</elem>
			<elem id="10">31,140,154,45,33,142,156,47,91,148,96,39,92,149,97,40,32,141,155,46</elem>
			<elem id="11">33,142,156,47,35,144,158,49,92,149,97,40,93,150,98,41,34,143,157,48</elem>
			<elem id="12">35,144,158,49,37,146,160,51,93,150,98,41,94,151,99,42,36,145,159,50</elem>
			<elem id="13">43,152,166,57,45,154,168,59,95,161,100,52,96,162,101,53,44,153,167,58</elem>
			<elem id="14">45,154,168,59,47,156,170,61,96,162,101,53,97,163,102,54,46,155,169,60</elem>
			<elem id="15">47,156,170,61,49,158,172,63,97,163,102,54,98,164,103,55,48,157,171,62</elem>
			<elem id="16">49,158,172,63,51,160,174,65,98,164,103,55,99,165,104,56,50,159,173,64</elem>
			<elem id="17">57,166,180,71,59,168,182,73,100,175,105,66,101,176,106,67,58,167,181,72</elem>
			<elem id="18">59,168,182,73,61,170,184,75,101,176,106,67,102,177,107,68,60,169,183,74</elem>
			<elem id="19">61,170,184,75,63,172,186,77,102,177,107,68,103,178,108,69,62,171,185,76</elem>
			<elem id="20">63,172,186,77,65,174,188,79,103,178,108,69,104,179,109,70,64,173,187,78</elem>
<!-- ... 80 like lines cut -->
		</Elements>
		<Elements type="quad8" name="Part2">
			<elem id="101">9,118,132,23,84,123,89,14</elem>
			<elem id="102">23,132,146,37,89,137,94,28</elem>
			<elem id="103">37,146,160,51,94,151,99,42</elem>
			<elem id="104">51,160,174,65,99,165,104,56</elem>
			<elem id="105">65,174,188,79,104,179,109,70</elem>
			<elem id="106">118,227,241,132,193,232,198,123</elem>
			<elem id="107">132,241,255,146,198,246,203,137</elem>
			<elem id="108">146,255,269,160,203,260,208,151</elem>
			<elem id="109">160,269,283,174,208,274,213,165</elem>
			<elem id="110">174,283,297,188,213,288,218,179</elem>
			<elem id="111">227,336,350,241,302,341,307,232</elem>
			<elem id="112">241,350,364,255,307,355,312,246</elem>
			<elem id="113">255,364,378,269,312,369,317,260</elem>
			<elem id="114">269,378,392,283,317,383,322,274</elem>
			<elem id="115">283,392,406,297,322,397,327,288</elem>
			<elem id="116">336,445,459,350,411,450,416,341</elem>
			<elem id="117">350,459,473,364,416,464,421,355</elem>
			<elem id="118">364,473,487,378,421,478,426,369</elem>
			<elem id="119">378,487,501,392,426,492,431,383</elem>
			<elem id="120">392,501,515,406,431,506,436,397</elem>
<!-- ... 5 like lines cut -->
		</Elements>
		<Elements type="hex20" name="Part3">
			<elem id="126">625,757,774,642,627,759,776,644,721,768,727,636,722,769,728,637,626,758,775,643</elem>
			<elem id="127">627,759,776,644,629,761,778,646,722,769,728,637,723,770,729,638,628,760,777,645</elem>
			<elem id="128">629,761,778,646,631,763,780,648,723,770,729,638,724,771,730,639,630,762,779,647</elem>
			<elem id="129">631,763,780,648,633,765,782,650,724,771,730,639,725,772,731,640,632,764,781,649</elem>
			<elem id="130">633,765,782,650,635,767,784,652,725,772,731,640,726,773,732,641,634,766,783,651</elem>
			<elem id="131">642,774,791,659,644,776,793,661,727,785,733,653,728,786,734,654,643,775,792,660</elem>
			<elem id="132">644,776,793,661,646,778,795,663,728,786,734,654,729,787,735,655,645,777,794,662</elem>
			<elem id="133">646,778,795,663,648,780,797,665,729,787,735,655,730,788,736,656,647,779,796,664</elem>
			<elem id="134">648,780,797,665,650,782,799,667,730,788,736,656,731,789,737,657,649,781,798,666</elem>
			<elem id="135">650,782,799,667,652,784,801,669,731,789,737,657,732,790,738,658,651,783,800,668</elem>
			<elem id="136">659,791,808,676,661,793,810,678,733,802,739,670,734,803,740,671,660,792,809,677</elem>
			<elem id="137">661,793,810,678,663,795,812,680,734,803,740,671,735,804,741,672,662,794,811,679</elem>
			<elem id="138">663,795,812,680,665,797,814,682,735,804,741,672,736,805,742,673,664,796,813,681</elem>
			<elem id="139">665,797,814,682,667,799,816,684,736,805,742,673,737,806,743,674,666,798,815,683</elem>
			<elem id="140">667,799,816,684,669,801,818,686,737,806,743,674,738,807,744,675,668,800,817,685</elem>
			<elem id="141">676,808,825,693,678,810,827,695,739,819,745,687,740,820,746,688,677,809,826,694</elem>
			<elem id="142">678,810,827,695,680,812,829,697,740,820,746,688,741,821,747,689,679,811,828,696</elem>
			<elem id="143">680,812,829,697,682,814,831,699,741,821,747,689,742,822,748,690,681,813,830,698</elem>
			<elem id="144">682,814,831,699,684,816,833,701,742,822,748,690,743,823,749,691,683,815,832,700</elem>
			<elem id="145">684,816,833,701,686,818,835,703,743,823,749,691,744,824,750,692,685,817,834,702</elem>
<!-- ... 105 like lines cut -->
		</Elements>
		<Elements type="quad8" name="Part4">
			<elem id="251">693,710,842,825,704,751,836,745</elem>
			<elem id="252">676,693,825,808,687,745,819,739</elem>
			<elem id="253">659,676,808,791,670,739,802,733</elem>
			<elem id="254">642,659,791,774,653,733,785,727</elem>
			<elem id="255">625,642,774,757,636,727,768,721</elem>
			<elem id="256">825,842,974,957,836,883,968,877</elem>
			<elem id="257">808,825,957,940,819,877,951,871</elem>
			<elem id="258">791,808,940,923,802,871,934,865</elem>
			<elem id="259">774,791,923,906,785,865,917,859</elem>
			<elem id="260">757,774,906,889,768,859,900,853</elem>
			<elem id="261">957,974,1106,1089,968,1015,1100,1009</elem>
			<elem id="262">940,957,1089,1072,951,1009,1083,1003</elem>
			<elem id="263">923,940,1072,1055,934,1003,1066,997</elem>
			<elem id="264">906,923,1055,1038,917,997,1049,991</elem>
			<elem id="265">889,906,1038,1021,900,991,1032,985</elem>
			<elem id="266">1089,1106,1238,1221,1100,1147,1232,1141</elem>
			<elem id="267">1072,1089,1221,1204,1083,1141,1215,1135</elem>
			<elem id="268">1055,1072,1204,1187,1066,1135,1198,1129</elem>
			<elem id="269">1038,1055,1187,1170,1049,1129,1181,1123</elem>
			<elem id="270">1021,1038,1170,1153,1032,1123,1164,1117</elem>
<!-- ... 5 like lines cut -->
		</Elements>
		<NodeSet name="box1-z">
			<n id="1"/>
			<n id="10"/>
			<n id="15"/>
			<n id="24"/>
			<n id="29"/>
			<n id="38"/>
			<n id="43"/>
			<n id="52"/>
			<n id="57"/>
			<n id="66"/>
			<n id="71"/>
			<n id="80"/>
			<n id="85"/>
			<n id="90"/>
			<n id="95"/>
			<n id="100"/>
			<n id="105"/>
			<n id="110"/>
			<n id="119"/>
			<n id="124"/>
<!-- ... 76 like lines cut -->
		</NodeSet>
		<NodeSet name="box1z">
			<n id="9"/>
			<n id="14"/>
			<n id="23"/>
			<n id="28"/>
			<n id="37"/>
			<n id="42"/>
			<n id="51"/>
			<n id="56"/>
			<n id="65"/>
			<n id="70"/>
			<n id="79"/>
			<n id="84"/>
			<n id="89"/>
			<n id="94"/>
			<n id="99"/>
			<n id="104"/>
			<n id="109"/>
			<n id="118"/>
			<n id="123"/>
			<n id="132"/>
<!-- ... 76 like lines cut -->
		</NodeSet>
		<NodeSet name="box2-z">
			<n id="625"/>
			<n id="636"/>
			<n id="642"/>
			<n id="653"/>
			<n id="659"/>
			<n id="670"/>
			<n id="676"/>
			<n id="687"/>
			<n id="693"/>
			<n id="704"/>
			<n id="710"/>
			<n id="721"/>
			<n id="727"/>
			<n id="733"/>
			<n id="739"/>
			<n id="745"/>
			<n id="751"/>
			<n id="757"/>
			<n id="768"/>
			<n id="774"/>
<!-- ... 76 like lines cut -->
		</NodeSet>
		<NodeSet name="box2z">
			<n id="635"/>
			<n id="641"/>
			<n id="652"/>
			<n id="658"/>
			<n id="669"/>
			<n id="675"/>
			<n id="686"/>
			<n id="692"/>
			<n id="703"/>
			<n id="709"/>
			<n id="720"/>
			<n id="726"/>
			<n id="732"/>
			<n id="738"/>
			<n id="744"/>
			<n id="750"/>
			<n id="756"/>
			<n id="767"/>
			<n id="773"/>
			<n id="784"/>
<!-- ... 76 like lines cut -->
		</NodeSet>
		<NodeSet name="box2z">
			<n id="635"/>
			<n id="641"/>
			<n id="652"/>
			<n id="658"/>
			<n id="669"/>
			<n id="675"/>
			<n id="686"/>
			<n id="692"/>
			<n id="703"/>
			<n id="709"/>
			<n id="720"/>
			<n id="726"/>
			<n id="732"/>
			<n id="738"/>
			<n id="744"/>
			<n id="750"/>
			<n id="756"/>
			<n id="767"/>
			<n id="773"/>
			<n id="784"/>
<!-- ... 76 like lines cut -->
		</NodeSet>
		<NodeSet name="box2z">
			<n id="635"/>
			<n id="641"/>
			<n id="652"/>
			<n id="658"/>
			<n id="669"/>
			<n id="675"/>
			<n id="686"/>
			<n id="692"/>
			<n id="703"/>
			<n id="709"/>
			<n id="720"/>
			<n id="726"/>
			<n id="732"/>
			<n id="738"/>
			<n id="744"/>
			<n id="750"/>
			<n id="756"/>
			<n id="767"/>
			<n id="773"/>
			<n id="784"/>
<!-- ... 76 like lines cut -->
		</NodeSet>
		<NodeSet name="unnamed_set01">
			<n id="4"/>
		</NodeSet>
		<NodeSet name="unnamed_set01">
			<n id="4"/>
		</NodeSet>
		<Surface name="PrimarySurface01">
			<quad8 id="1">642,774,757,625,727,768,721,636</quad8>
			<quad8 id="2">659,791,774,642,733,785,727,653</quad8>
			<quad8 id="3">676,808,791,659,739,802,733,670</quad8>
			<quad8 id="4">693,825,808,676,745,819,739,687</quad8>
			<quad8 id="5">710,842,825,693,751,836,745,704</quad8>
			<quad8 id="6">774,906,889,757,859,900,853,768</quad8>
			<quad8 id="7">791,923,906,774,865,917,859,785</quad8>
			<quad8 id="8">808,940,923,791,871,934,865,802</quad8>
			<quad8 id="9">825,957,940,808,877,951,871,819</quad8>
			<quad8 id="10">842,974,957,825,883,968,877,836</quad8>
			<quad8 id="11">906,1038,1021,889,991,1032,985,900</quad8>
			<quad8 id="12">923,1055,1038,906,997,1049,991,917</quad8>
			<quad8 id="13">940,1072,1055,923,1003,1066,997,934</quad8>
			<quad8 id="14">957,1089,1072,940,1009,1083,1003,951</quad8>
			<quad8 id="15">974,1106,1089,957,1015,1100,1009,968</quad8>
			<quad8 id="16">1038,1170,1153,1021,1123,1164,1117,1032</quad8>
			<quad8 id="17">1055,1187,1170,1038,1129,1181,1123,1049</quad8>
			<quad8 id="18">1072,1204,1187,1055,1135,1198,1129,1066</quad8>
			<quad8 id="19">1089,1221,1204,1072,1141,1215,1135,1083</quad8>
			<quad8 id="20">1106,1238,1221,1089,1147,1232,1141,1100</quad8>
<!-- ... 5 like lines cut -->
		</Surface>
		<Surface name="SecondarySurface01">
			<quad8 id="1">9,118,132,23,84,123,89,14</quad8>
			<quad8 id="2">23,132,146,37,89,137,94,28</quad8>
			<quad8 id="3">37,146,160,51,94,151,99,42</quad8>
			<quad8 id="4">51,160,174,65,99,165,104,56</quad8>
			<quad8 id="5">65,174,188,79,104,179,109,70</quad8>
			<quad8 id="6">118,227,241,132,193,232,198,123</quad8>
			<quad8 id="7">132,241,255,146,198,246,203,137</quad8>
			<quad8 id="8">146,255,269,160,203,260,208,151</quad8>
			<quad8 id="9">160,269,283,174,208,274,213,165</quad8>
			<quad8 id="10">174,283,297,188,213,288,218,179</quad8>
			<quad8 id="11">227,336,350,241,302,341,307,232</quad8>
			<quad8 id="12">241,350,364,255,307,355,312,246</quad8>
			<quad8 id="13">255,364,378,269,312,369,317,260</quad8>
			<quad8 id="14">269,378,392,283,317,383,322,274</quad8>
			<quad8 id="15">283,392,406,297,322,397,327,288</quad8>
			<quad8 id="16">336,445,459,350,411,450,416,341</quad8>
			<quad8 id="17">350,459,473,364,416,464,421,355</quad8>
			<quad8 id="18">364,473,487,378,421,478,426,369</quad8>
			<quad8 id="19">378,487,501,392,426,492,431,383</quad8>
			<quad8 id="20">392,501,515,406,431,506,436,397</quad8>
<!-- ... 5 like lines cut -->
		</Surface>
		<SurfacePair name="TCInterface01">
			<primary>PrimarySurface01</primary>
			<secondary>SecondarySurface01</secondary>
		</SurfacePair>
	</Mesh>
	<MeshDomains>
		<SolidDomain name="Part1" mat="mat1"/>
		<ShellDomain name="Part2" mat="mat2"/>
		<SolidDomain name="Part3" mat="mat4"/>
		<ShellDomain name="Part4" mat="mat3"/>
	</MeshDomains>
	<MeshData>
		<ElementData var="shell thickness" elem_set="Part2">
			<e lid="1">0.01,0.01,0.01,0.01,0.01,0.01,0.01,0.01</e>
			<e lid="2">0.01,0.01,0.01,0.01,0.01,0.01,0.01,0.01</e>
			<e lid="3">0.01,0.01,0.01,0.01,0.01,0.01,0.01,0.01</e>
			<e lid="4">0.01,0.01,0.01,0.01,0.01,0.01,0.01,0.01</e>
			<e lid="5">0.01,0.01,0.01,0.01,0.01,0.01,0.01,0.01</e>
			<e lid="6">0.01,0.01,0.01,0.01,0.01,0.01,0.01,0.01</e>
			<e lid="7">0.01,0.01,0.01,0.01,0.01,0.01,0.01,0.01</e>
			<e lid="8">0.01,0.01,0.01,0.01,0.01,0.01,0.01,0.01</e>
			<e lid="9">0.01,0.01,0.01,0.01,0.01,0.01,0.01,0.01</e>
			<e lid="10">0.01,0.01,0.01,0.01,0.01,0.01,0.01,0.01</e>
			<e lid="11">0.01,0.01,0.01,0.01,0.01,0.01,0.01,0.01</e>
			<e lid="12">0.01,0.01,0.01,0.01,0.01,0.01,0.01,0.01</e>
			<e lid="13">0.01,0.01,0.01,0.01,0.01,0.01,0.01,0.01</e>
			<e lid="14">0.01,0.01,0.01,0.01,0.01,0.01,0.01,0.01</e>
			<e lid="15">0.01,0.01,0.01,0.01,0.01,0.01,0.01,0.01</e>
			<e lid="16">0.01,0.01,0.01,0.01,0.01,0.01,0.01,0.01</e>
			<e lid="17">0.01,0.01,0.01,0.01,0.01,0.01,0.01,0.01</e>
			<e lid="18">0.01,0.01,0.01,0.01,0.01,0.01,0.01,0.01</e>
			<e lid="19">0.01,0.01,0.01,0.01,0.01,0.01,0.01,0.01</e>
			<e lid="20">0.01,0.01,0.01,0.01,0.01,0.01,0.01,0.01</e>
<!-- ... 5 like lines cut -->
		</ElementData>
		<ElementData var="shell thickness" elem_set="Part4">
			<e lid="1">0.01,0.01,0.01,0.01,0.01,0.01,0.01,0.01</e>
			<e lid="2">0.01,0.01,0.01,0.01,0.01,0.01,0.01,0.01</e>
			<e lid="3">0.01,0.01,0.01,0.01,0.01,0.01,0.01,0.01</e>
			<e lid="4">0.01,0.01,0.01,0.01,0.01,0.01,0.01,0.01</e>
			<e lid="5">0.01,0.01,0.01,0.01,0.01,0.01,0.01,0.01</e>
			<e lid="6">0.01,0.01,0.01,0.01,0.01,0.01,0.01,0.01</e>
			<e lid="7">0.01,0.01,0.01,0.01,0.01,0.01,0.01,0.01</e>
			<e lid="8">0.01,0.01,0.01,0.01,0.01,0.01,0.01,0.01</e>
			<e lid="9">0.01,0.01,0.01,0.01,0.01,0.01,0.01,0.01</e>
			<e lid="10">0.01,0.01,0.01,0.01,0.01,0.01,0.01,0.01</e>
			<e lid="11">0.01,0.01,0.01,0.01,0.01,0.01,0.01,0.01</e>
			<e lid="12">0.01,0.01,0.01,0.01,0.01,0.01,0.01,0.01</e>
			<e lid="13">0.01,0.01,0.01,0.01,0.01,0.01,0.01,0.01</e>
			<e lid="14">0.01,0.01,0.01,0.01,0.01,0.01,0.01,0.01</e>
			<e lid="15">0.01,0.01,0.01,0.01,0.01,0.01,0.01,0.01</e>
			<e lid="16">0.01,0.01,0.01,0.01,0.01,0.01,0.01,0.01</e>
			<e lid="17">0.01,0.01,0.01,0.01,0.01,0.01,0.01,0.01</e>
			<e lid="18">0.01,0.01,0.01,0.01,0.01,0.01,0.01,0.01</e>
			<e lid="19">0.01,0.01,0.01,0.01,0.01,0.01,0.01,0.01</e>
			<e lid="20">0.01,0.01,0.01,0.01,0.01,0.01,0.01,0.01</e>
<!-- ... 5 like lines cut -->
		</ElementData>
	</MeshData>
	<Boundary>
		<bc name="FixedDisplacement01" type="fix" node_set="box1-z">
			<dofs>x,y,z</dofs>
		</bc>
		<bc name="FixedDisplacement02" type="fix" node_set="box1z">
			<dofs>x,y</dofs>
		</bc>
		<bc name="FixedDisplacement03" type="fix" node_set="box2-z">
			<dofs>y</dofs>
		</bc>
		<bc name="FixedDisplacement04" type="fix" node_set="box2z">
			<dofs>y</dofs>
		</bc>
		<bc name="box2z" type="prescribe" node_set="box2z">
			<dof>x</dof>
			<scale lc="1">1</scale>
			<relative>0</relative>
		</bc>
		<bc name="box2z" type="prescribe" node_set="box2z">
			<dof>z</dof>
			<scale lc="2">1</scale>
			<relative>0</relative>
		</bc>
	</Boundary>
	<Contact>
		<contact type="sliding-elastic" name="TCInterface01" surface_pair="TCInterface01">
			<laugon>1</laugon>
			<tolerance>0.5</tolerance>
			<gaptol>0</gaptol>
			<penalty>0.01</penalty>
			<auto_penalty>1</auto_penalty>
			<two_pass>1</two_pass>
			<search_tol>0.01</search_tol>
			<symmetric_stiffness>0</symmetric_stiffness>
			<search_radius>1</search_radius>
			<seg_up>0</seg_up>
			<tension>0</tension>
			<minaug>0</minaug>
			<maxaug>10</maxaug>
			<fric_coeff>0</fric_coeff>
			<smooth_aug>0</smooth_aug>
			<node_reloc>0</node_reloc>
			<flip_primary>0</flip_primary>
			<flip_secondary>0</flip_secondary>
			<knmult>0</knmult>
			<update_penalty>0</update_penalty>
		</contact>
	</Contact>
	<LoadData>
		<load_controller id="1" type="loadcurve">
			<interpolate>LINEAR</interpolate>
			<points>
				<point>0,0</point>
				<point>1,0</point>
				<point>2,-0.8</point>
			</points>
		</load_controller>
		<load_controller id="2" type="loadcurve">
			<interpolate>LINEAR</interpolate>
			<points>
				<point>0,0</point>
				<point>0.1,-0.5</point>
				<point>1,-0.64</point>
				<point>2,-0.64</point>
			</points>
		</load_controller>
	</LoadData>
	<Output>
		<plotfile type="febio">
			<var type="contact gap"/>
			<var type="contact pressure"/>
			<var type="displacement"/>
			<var type="relative volume"/>
			<var type="shell director"/>
			<var type="shell strain"/>
			<var type="stress"/>
		</plotfile>
		<logfile>
			<node_data data="z" node_set="unnamed_set01"/>
		</logfile>
	</Output>
</febio_spec>
