<?xml version="1.0" encoding="ISO-8859-1"?>
<febio_spec version="3.0">
	<Module type="solid"/>
	<Control>
		<analysis>STATIC</analysis>
		<time_steps>40</time_steps>
		<step_size>0.1</step_size>
		<solver>
			<max_refs>25</max_refs>
			<max_ups>0</max_ups>
			<diverge_reform>1</diverge_reform>
			<reform_each_time_step>1</reform_each_time_step>
			<dtol>0.001</dtol>
			<etol>0.01</etol>
			<rtol>0</rtol>
			<lstol>0.9</lstol>
			<min_residual>1e-20</min_residual>
			<qnmethod>BFGS</qnmethod>
			<rhoi>-2</rhoi>
			<symmetric_stiffness>0</symmetric_stiffness>
		</solver>
		<time_stepper>
			<dtmin>0.01</dtmin>
			<dtmax>0.1</dtmax>
			<max_retries>5</max_retries>
			<opt_iter>15</opt_iter>
		</time_stepper>
	</Control>
	<Globals>
		<Constants>
			<T>293</T>
			<R>0.008314</R>
			<Fc>0.0965</Fc>
		</Constants>
	</Globals>
	<Material>
		<material id="1" name="mat1" type="neo-Hookean">
			<density>1</density>
			<E>1</E>
			<v>0</v>
		</material>
		<material id="2" name="mat2" type="neo-Hookean">
			<density>1</density>
			<E>10000</E>
			<v>0</v>
		</material>
		<material id="3" name="mat3" type="neo-Hookean">
			<density>1</density>
			<E>10000</E>
			<v>0</v>
		</material>
		<material id="4" name="mat4" type="neo-Hookean">
			<density>1</density>
			<E>100</E>
			<v>0</v>
		</material>
	</Material>
	<Mesh>
		<Nodes name="Object01">
			<node id="1">-2.5,-0.9,0</node>
			<node id="2">-2.5,-0.9,0.1</node>
			<node id="3">-2.5,-0.9,0.2</node>
			<node id="4">-2.5,-0.9,0.3</node>
			<node id="5">-2.5,-0.9,0.4</node>
			<node id="6">-2.5,-0.9,0.5</node>
			<node id="7">-2.5,-0.9,0.6</node>
			<node id="8">-2.5,-0.9,0.7</node>
			<node id="9">-2.5,-0.9,0.8</node>
			<node id="10">-2.5,-0.9,0.9</node>
			<node id="11">-2.5,-0.9,1</node>
			<node id="12">-2.5,-0.81,0</node>
			<node id="13">-2.5,-0.81,0.2</node>
			<node id="14">-2.5,-0.81,0.4</node>
			<node id="15">-2.5,-0.81,0.6</node>
			<node id="16">-2.5,-0.81,0.8</node>
			<node id="17">-2.5,-0.81,1</node>
			<node id="18">-2.5,-0.72,0</node>
			<node id="19">-2.5,-0.72,0.1</node>
			<node id="20">-2.5,-0.72,0.2</node>
<!-- ... 6204 like lines cut -->
		</Nodes>
		<Elements type="hex20" name="Part7">
			<elem id="1">1,248,265,18,3,250,267,20,182,259,188,12,183,260,189,13,2,249,266,19</elem>
			<elem id="2">3,250,267,20,5,252,269,22,183,260,189,13,184,261,190,14,4,251,268,21</elem>
			<elem id="3">5,252,269,22,7,254,271,24,184,261,190,14,185,262,191,15,6,253,270,23</elem>
			<elem id="4">7,254,271,24,9,256,273,26,185,262,191,15,186,263,192,16,8,255,272,25</elem>
			<elem id="5">9,256,273,26,11,258,275,28,186,263,192,16,187,264,193,17,10,257,274,27</elem>
			<elem id="6">18,265,282,35,20,267,284,37,188,276,194,29,189,277,195,30,19,266,283,36</elem>
			<elem id="7">20,267,284,37,22,269,286,39,189,277,195,30,190,278,196,31,21,268,285,38</elem>
			<elem id="8">22,269,286,39,24,271,288,41,190,278,196,31,191,279,197,32,23,270,287,40</elem>
			<elem id="9">24,271,288,41,26,273,290,43,191,279,197,32,192,280,198,33,25,272,289,42</elem>
			<elem id="10">26,273,290,43,28,275,292,45,192,280,198,33,193,281,199,34,27,274,291,44</elem>
			<elem id="11">35,282,299,52,37,284,301,54,194,293,200,46,195,294,201,47,36,283,300,53</elem>
			<elem id="12">37,284,301,54,39,286,303,56,195,294,201,47,196,295,202,48,38,285,302,55</elem>
			<elem id="13">39,286,303,56,41,288,305,58,196,295,202,48,197,296,203,49,40,287,304,57</elem>
			<elem id="14">41,288,305,58,43,290,307,60,197,296,203,49,198,297,204,50,42,289,306,59</elem>
			<elem id="15">43,290,307,60,45,292,309,62,198,297,204,50,199,298,205,51,44,291,308,61</elem>
			<elem id="16">52,299,316,69,54,301,318,71,200,310,206,63,201,311,207,64,53,300,317,70</elem>
			<elem id="17">54,301,318,71,56,303,320,73,201,311,207,64,202,312,208,65,55,302,319,72</elem>
			<elem id="18">56,303,320,73,58,305,322,75,202,312,208,65,203,313,209,66,57,304,321,74</elem>
			<elem id="19">58,305,322,75,60,307,324,77,203,313,209,66,204,314,210,67,59,306,323,76</elem>
			<elem id="20">60,307,324,77,62,309,326,79,204,314,210,67,205,315,211,68,61,308,325,78</elem>
<!-- ... 980 like lines cut -->
		</Elements>
		<Elements type="quad8" name="Part10">
			<elem id="1001">11,258,275,28,187,264,193,17</elem>
			<elem id="1002">28,275,292,45,193,281,199,34</elem>
			<elem id="1003">45,292,309,62,199,298,205,51</elem>
			<elem id="1004">62,309,326,79,205,315,211,68</elem>
			<elem id="1005">79,326,343,96,211,332,217,85</elem>
			<elem id="1006">96,343,360,113,217,349,223,102</elem>
			<elem id="1007">113,360,377,130,223,366,229,119</elem>
			<elem id="1008">130,377,394,147,229,383,235,136</elem>
			<elem id="1009">147,394,411,164,235,400,241,153</elem>
			<elem id="1010">164,411,428,181,241,417,247,170</elem>
			<elem id="1011">258,505,522,275,434,511,440,264</elem>
			<elem id="1012">275,522,539,292,440,528,446,281</elem>
			<elem id="1013">292,539,556,309,446,545,452,298</elem>
			<elem id="1014">309,556,573,326,452,562,458,315</elem>
			<elem id="1015">326,573,590,343,458,579,464,332</elem>
			<elem id="1016">343,590,607,360,464,596,470,349</elem>
			<elem id="1017">360,607,624,377,470,613,476,366</elem>
			<elem id="1018">377,624,641,394,476,630,482,383</elem>
			<elem id="1019">394,641,658,411,482,647,488,400</elem>
			<elem id="1020">411,658,675,428,488,664,494,417</elem>
<!-- ... 180 like lines cut -->
		</Elements>
		<Elements type="hex20" name="Part7(2)">
			<elem id="1201">5124,5125,5127,5126,5154,5155,5157,5156,5457,5461,5462,5459,5530,5533,5535,5531,5458,5460,5465,5463</elem>
			<elem id="1202">5126,5127,5129,5128,5156,5157,5159,5158,5462,5466,5467,5464,5535,5538,5540,5536,5463,5465,5470,5468</elem>
			<elem id="1203">5128,5129,5131,5130,5158,5159,5161,5160,5467,5471,5472,5469,5540,5543,5545,5541,5468,5470,5475,5473</elem>
			<elem id="1204">5130,5131,5133,5132,5160,5161,5163,5162,5472,5476,5477,5474,5545,5548,5550,5546,5473,5475,5480,5478</elem>
			<elem id="1205">5132,5133,5135,5134,5162,5163,5165,5164,5477,5481,5482,5479,5550,5553,5555,5551,5478,5480,5485,5483</elem>
			<elem id="1206">5134,5135,5137,5136,5164,5165,5167,5166,5482,5486,5487,5484,5555,5558,5560,5556,5483,5485,5490,5488</elem>
			<elem id="1207">5136,5137,5139,5138,5166,5167,5169,5168,5487,5491,5492,5489,5560,5563,5565,5561,5488,5490,5495,5493</elem>
			<elem id="1208">5138,5139,5141,5140,5168,5169,5171,5170,5492,5496,5497,5494,5565,5568,5570,5566,5493,5495,5500,5498</elem>
			<elem id="1209">5140,5141,5143,5142,5170,5171,5173,5172,5497,5501,5502,5499,5570,5573,5575,5571,5498,5500,5505,5503</elem>
			<elem id="1210">5142,5143,5145,5144,5172,5173,5175,5174,5502,5506,5507,5504,5575,5578,5580,5576,5503,5505,5510,5508</elem>
			<elem id="1211">5144,5145,5147,5146,5174,5175,5177,5176,5507,5511,5512,5509,5580,5583,5585,5581,5508,5510,5515,5513</elem>
			<elem id="1212">5146,5147,5149,5148,5176,5177,5179,5178,5512,5516,5517,5514,5585,5588,5590,5586,5513,5515,5520,5518</elem>
			<elem id="1213">5148,5149,5151,5150,5178,5179,5181,5180,5517,5521,5522,5519,5590,5593,5595,5591,5518,5520,5524,5523</elem>
			<elem id="1214">5150,5151,5123,5122,5180,5181,5153,5152,5522,5456,5452,5454,5595,5528,5525,5526,5523,5524,5455,5453</elem>
			<elem id="1215">5154,5155,5157,5156,5184,5185,5187,5186,5530,5533,5535,5531,5603,5606,5608,5604,5532,5534,5539,5537</elem>
			<elem id="1216">5156,5157,5159,5158,5186,5187,5189,5188,5535,5538,5540,5536,5608,5611,5613,5609,5537,5539,5544,5542</elem>
			<elem id="1217">5158,5159,5161,5160,5188,5189,5191,5190,5540,5543,5545,5541,5613,5616,5618,5614,5542,5544,5549,5547</elem>
			<elem id="1218">5160,5161,5163,5162,5190,5191,5193,5192,5545,5548,5550,5546,5618,5621,5623,5619,5547,5549,5554,5552</elem>
			<elem id="1219">5162,5163,5165,5164,5192,5193,5195,5194,5550,5553,5555,5551,5623,5626,5628,5624,5552,5554,5559,5557</elem>
			<elem id="1220">5164,5165,5167,5166,5194,5195,5197,5196,5555,5558,5560,5556,5628,5631,5633,5629,5557,5559,5564,5562</elem>
<!-- ... 120 like lines cut -->
		</Elements>
		<Elements type="quad8" name="Part8">
			<elem id="1341">5125,5127,5157,5155,5461,5465,5533,5460</elem>
			<elem id="1342">5127,5129,5159,5157,5466,5470,5538,5465</elem>
			<elem id="1343">5129,5131,5161,5159,5471,5475,5543,5470</elem>
			<elem id="1344">5131,5133,5163,5161,5476,5480,5548,5475</elem>
			<elem id="1345">5133,5135,5165,5163,5481,5485,5553,5480</elem>
			<elem id="1346">5135,5137,5167,5165,5486,5490,5558,5485</elem>
			<elem id="1347">5137,5139,5169,5167,5491,5495,5563,5490</elem>
			<elem id="1348">5139,5141,5171,5169,5496,5500,5568,5495</elem>
			<elem id="1349">5141,5143,5173,5171,5501,5505,5573,5500</elem>
			<elem id="1350">5143,5145,5175,5173,5506,5510,5578,5505</elem>
			<elem id="1351">5145,5147,5177,5175,5511,5515,5583,5510</elem>
			<elem id="1352">5147,5149,5179,5177,5516,5520,5588,5515</elem>
			<elem id="1353">5149,5151,5181,5179,5521,5524,5593,5520</elem>
			<elem id="1354">5151,5123,5153,5181,5456,5455,5528,5524</elem>
			<elem id="1355">5155,5157,5187,5185,5533,5539,5606,5534</elem>
			<elem id="1356">5157,5159,5189,5187,5538,5544,5611,5539</elem>
			<elem id="1357">5159,5161,5191,5189,5543,5549,5616,5544</elem>
			<elem id="1358">5161,5163,5193,5191,5548,5554,5621,5549</elem>
			<elem id="1359">5163,5165,5195,5193,5553,5559,5626,5554</elem>
			<elem id="1360">5165,5167,5197,5195,5558,5564,5631,5559</elem>
<!-- ... 120 like lines cut -->
		</Elements>
		<NodeSet name="box1-z">
			<n id="1"/>
			<n id="12"/>
			<n id="18"/>
			<n id="29"/>
			<n id="35"/>
			<n id="46"/>
			<n id="52"/>
			<n id="63"/>
			<n id="69"/>
			<n id="80"/>
			<n id="86"/>
			<n id="97"/>
			<n id="103"/>
			<n id="114"/>
			<n id="120"/>
			<n id="131"/>
			<n id="137"/>
			<n id="148"/>
			<n id="154"/>
			<n id="165"/>
<!-- ... 641 like lines cut -->
		</NodeSet>
		<NodeSet name="box1z">
			<n id="11"/>
			<n id="17"/>
			<n id="28"/>
			<n id="34"/>
			<n id="45"/>
			<n id="51"/>
			<n id="62"/>
			<n id="68"/>
			<n id="79"/>
			<n id="85"/>
			<n id="96"/>
			<n id="102"/>
			<n id="113"/>
			<n id="119"/>
			<n id="130"/>
			<n id="136"/>
			<n id="147"/>
			<n id="153"/>
			<n id="164"/>
			<n id="170"/>
<!-- ... 641 like lines cut -->
		</NodeSet>
		<NodeSet name="box2z">
			<n id="5122"/>
			<n id="5124"/>
			<n id="5126"/>
			<n id="5128"/>
			<n id="5130"/>
			<n id="5132"/>
			<n id="5134"/>
			<n id="5136"/>
			<n id="5138"/>
			<n id="5140"/>
			<n id="5142"/>
			<n id="5144"/>
			<n id="5146"/>
			<n id="5148"/>
			<n id="5150"/>
			<n id="5152"/>
			<n id="5154"/>
			<n id="5156"/>
			<n id="5158"/>
			<n id="5160"/>
<!-- ... 449 like lines cut -->
		</NodeSet>
		<NodeSet name="box2z">
			<n id="5122"/>
			<n id="5124"/>
			<n id="5126"/>
			<n id="5128"/>
			<n id="5130"/>
			<n id="5132"/>
			<n id="5134"/>
			<n id="5136"/>
			<n id="5138"/>
			<n id="5140"/>
			<n id="5142"/>
			<n id="5144"/>
			<n id="5146"/>
			<n id="5148"/>
			<n id="5150"/>
			<n id="5152"/>
			<n id="5154"/>
			<n id="5156"/>
			<n id="5158"/>
			<n id="5160"/>
<!-- ... 449 like lines cut -->
		</NodeSet>
		<NodeSet name="box2z">
			<n id="5122"/>
			<n id="5124"/>
			<n id="5126"/>
			<n id="5128"/>
			<n id="5130"/>
			<n id="5132"/>
			<n id="5134"/>
			<n id="5136"/>
			<n id="5138"/>
			<n id="5140"/>
			<n id="5142"/>
			<n id="5144"/>
			<n id="5146"/>
			<n id="5148"/>
			<n id="5150"/>
			<n id="5152"/>
			<n id="5154"/>
			<n id="5156"/>
			<n id="5158"/>
			<n id="5160"/>
<!-- ... 449 like lines cut -->
		</NodeSet>
		<NodeSet name="unnamed_set01">
			<n id="4"/>
		</NodeSet>
		<NodeSet name="unnamed_set01">
			<n id="4"/>
		</NodeSet>
		<Surface name="PrimarySurface01">
			<quad8 id="1">5125,5127,5157,5155,5461,5465,5533,5460</quad8>
			<quad8 id="2">5127,5129,5159,5157,5466,5470,5538,5465</quad8>
			<quad8 id="3">5129,5131,5161,5159,5471,5475,5543,5470</quad8>
			<quad8 id="4">5131,5133,5163,5161,5476,5480,5548,5475</quad8>
			<quad8 id="5">5133,5135,5165,5163,5481,5485,5553,5480</quad8>
			<quad8 id="6">5135,5137,5167,5165,5486,5490,5558,5485</quad8>
			<quad8 id="7">5137,5139,5169,5167,5491,5495,5563,5490</quad8>
			<quad8 id="8">5139,5141,5171,5169,5496,5500,5568,5495</quad8>
			<quad8 id="9">5141,5143,5173,5171,5501,5505,5573,5500</quad8>
			<quad8 id="10">5143,5145,5175,5173,5506,5510,5578,5505</quad8>
			<quad8 id="11">5145,5147,5177,5175,5511,5515,5583,5510</quad8>
			<quad8 id="12">5147,5149,5179,5177,5516,5520,5588,5515</quad8>
			<quad8 id="13">5149,5151,5181,5179,5521,5524,5593,5520</quad8>
			<quad8 id="14">5151,5123,5153,5181,5456,5455,5528,5524</quad8>
			<quad8 id="15">5155,5157,5187,5185,5533,5539,5606,5534</quad8>
			<quad8 id="16">5157,5159,5189,5187,5538,5544,5611,5539</quad8>
			<quad8 id="17">5159,5161,5191,5189,5543,5549,5616,5544</quad8>
			<quad8 id="18">5161,5163,5193,5191,5548,5554,5621,5549</quad8>
			<quad8 id="19">5163,5165,5195,5193,5553,5559,5626,5554</quad8>
			<quad8 id="20">5165,5167,5197,5195,5558,5564,5631,5559</quad8>
<!-- ... 120 like lines cut -->
		</Surface>
		<Surface name="SecondarySurface01">
			<quad8 id="1">11,258,275,28,187,264,193,17</quad8>
			<quad8 id="2">28,275,292,45,193,281,199,34</quad8>
			<quad8 id="3">45,292,309,62,199,298,205,51</quad8>
			<quad8 id="4">62,309,326,79,205,315,211,68</quad8>
			<quad8 id="5">79,326,343,96,211,332,217,85</quad8>
			<quad8 id="6">96,343,360,113,217,349,223,102</quad8>
			<quad8 id="7">113,360,377,130,223,366,229,119</quad8>
			<quad8 id="8">130,377,394,147,229,383,235,136</quad8>
			<quad8 id="9">147,394,411,164,235,400,241,153</quad8>
			<quad8 id="10">164,411,428,181,241,417,247,170</quad8>
			<quad8 id="11">258,505,522,275,434,511,440,264</quad8>
			<quad8 id="12">275,522,539,292,440,528,446,281</quad8>
			<quad8 id="13">292,539,556,309,446,545,452,298</quad8>
			<quad8 id="14">309,556,573,326,452,562,458,315</quad8>
			<quad8 id="15">326,573,590,343,458,579,464,332</quad8>
			<quad8 id="16">343,590,607,360,464,596,470,349</quad8>
			<quad8 id="17">360,607,624,377,470,613,476,366</quad8>
			<quad8 id="18">377,624,641,394,476,630,482,383</quad8>
			<quad8 id="19">394,641,658,411,482,647,488,400</quad8>
			<quad8 id="20">411,658,675,428,488,664,494,417</quad8>
<!-- ... 180 like lines cut -->
		</Surface>
		<SurfacePair name="TCInterface01">
			<primary>PrimarySurface01</primary>
			<secondary>SecondarySurface01</secondary>
		</SurfacePair>
	</Mesh>
	<MeshDomains>
		<SolidDomain name="Part7" mat="mat1"/>
		<ShellDomain name="Part10" mat="mat2"/>
		<SolidDomain name="Part7(2)" mat="mat4"/>
		<ShellDomain name="Part8" mat="mat3"/>
	</MeshDomains>
	<MeshData>
		<ElementData var="shell thickness" elem_set="Part10">
			<e lid="1">0.01,0.01,0.01,0.01,0.01,0.01,0.01,0.01</e>
			<e lid="2">0.01,0.01,0.01,0.01,0.01,0.01,0.01,0.01</e>
			<e lid="3">0.01,0.01,0.01,0.01,0.01,0.01,0.01,0.01</e>
			<e lid="4">0.01,0.01,0.01,0.01,0.01,0.01,0.01,0.01</e>
			<e lid="5">0.01,0.01,0.01,0.01,0.01,0.01,0.01,0.01</e>
			<e lid="6">0.01,0.01,0.01,0.01,0.01,0.01,0.01,0.01</e>
			<e lid="7">0.01,0.01,0.01,0.01,0.01,0.01,0.01,0.01</e>
			<e lid="8">0.01,0.01,0.01,0.01,0.01,0.01,0.01,0.01</e>
			<e lid="9">0.01,0.01,0.01,0.01,0.01,0.01,0.01,0.01</e>
			<e lid="10">0.01,0.01,0.01,0.01,0.01,0.01,0.01,0.01</e>
			<e lid="11">0.01,0.01,0.01,0.01,0.01,0.01,0.01,0.01</e>
			<e lid="12">0.01,0.01,0.01,0.01,0.01,0.01,0.01,0.01</e>
			<e lid="13">0.01,0.01,0.01,0.01,0.01,0.01,0.01,0.01</e>
			<e lid="14">0.01,0.01,0.01,0.01,0.01,0.01,0.01,0.01</e>
			<e lid="15">0.01,0.01,0.01,0.01,0.01,0.01,0.01,0.01</e>
			<e lid="16">0.01,0.01,0.01,0.01,0.01,0.01,0.01,0.01</e>
			<e lid="17">0.01,0.01,0.01,0.01,0.01,0.01,0.01,0.01</e>
			<e lid="18">0.01,0.01,0.01,0.01,0.01,0.01,0.01,0.01</e>
			<e lid="19">0.01,0.01,0.01,0.01,0.01,0.01,0.01,0.01</e>
			<e lid="20">0.01,0.01,0.01,0.01,0.01,0.01,0.01,0.01</e>
<!-- ... 180 like lines cut -->
		</ElementData>
		<ElementData var="shell thickness" elem_set="Part8">
			<e lid="1">0.01,0.01,0.01,0.01,0.01,0.01,0.01,0.01</e>
			<e lid="2">0.01,0.01,0.01,0.01,0.01,0.01,0.01,0.01</e>
			<e lid="3">0.01,0.01,0.01,0.01,0.01,0.01,0.01,0.01</e>
			<e lid="4">0.01,0.01,0.01,0.01,0.01,0.01,0.01,0.01</e>
			<e lid="5">0.01,0.01,0.01,0.01,0.01,0.01,0.01,0.01</e>
			<e lid="6">0.01,0.01,0.01,0.01,0.01,0.01,0.01,0.01</e>
			<e lid="7">0.01,0.01,0.01,0.01,0.01,0.01,0.01,0.01</e>
			<e lid="8">0.01,0.01,0.01,0.01,0.01,0.01,0.01,0.01</e>
			<e lid="9">0.01,0.01,0.01,0.01,0.01,0.01,0.01,0.01</e>
			<e lid="10">0.01,0.01,0.01,0.01,0.01,0.01,0.01,0.01</e>
			<e lid="11">0.01,0.01,0.01,0.01,0.01,0.01,0.01,0.01</e>
			<e lid="12">0.01,0.01,0.01,0.01,0.01,0.01,0.01,0.01</e>
			<e lid="13">0.01,0.01,0.01,0.01,0.01,0.01,0.01,0.01</e>
			<e lid="14">0.01,0.01,0.01,0.01,0.01,0.01,0.01,0.01</e>
			<e lid="15">0.01,0.01,0.01,0.01,0.01,0.01,0.01,0.01</e>
			<e lid="16">0.01,0.01,0.01,0.01,0.01,0.01,0.01,0.01</e>
			<e lid="17">0.01,0.01,0.01,0.01,0.01,0.01,0.01,0.01</e>
			<e lid="18">0.01,0.01,0.01,0.01,0.01,0.01,0.01,0.01</e>
			<e lid="19">0.01,0.01,0.01,0.01,0.01,0.01,0.01,0.01</e>
			<e lid="20">0.01,0.01,0.01,0.01,0.01,0.01,0.01,0.01</e>
<!-- ... 120 like lines cut -->
		</ElementData>
	</MeshData>
	<Boundary>
		<bc name="FixedDisplacement01" type="fix" node_set="box1-z">
			<dofs>x,y,z</dofs>
		</bc>
		<bc name="FixedDisplacement02" type="fix" node_set="box1z">
			<dofs>x,y</dofs>
		</bc>
		<bc name="FixedDisplacement03" type="fix" node_set="box2z">
			<dofs>y</dofs>
		</bc>
		<bc name="box2z" type="prescribe" node_set="box2z">
			<dof>x</dof>
			<scale lc="1">1</scale>
			<relative>0</relative>
		</bc>
		<bc name="box2z" type="prescribe" node_set="box2z">
			<dof>z</dof>
			<scale lc="2">1</scale>
			<relative>0</relative>
		</bc>
	</Boundary>
	<Contact>
		<contact type="sliding-elastic" name="TCInterface01" surface_pair="TCInterface01">
			<laugon>0</laugon>
			<tolerance>0.1</tolerance>
			<gaptol>0</gaptol>
			<penalty>0.0001</penalty>
			<auto_penalty>1</auto_penalty>
			<two_pass>1</two_pass>
			<search_tol>0.01</search_tol>
			<symmetric_stiffness>0</symmetric_stiffness>
			<search_radius>1</search_radius>
			<seg_up>0</seg_up>
			<tension>0</tension>
			<minaug>0</minaug>
			<maxaug>10</maxaug>
			<fric_coeff>0</fric_coeff>
			<smooth_aug>0</smooth_aug>
			<node_reloc>0</node_reloc>
			<flip_primary>0</flip_primary>
			<flip_secondary>0</flip_secondary>
			<knmult>0</knmult>
			<update_penalty>0</update_penalty>
		</contact>
	</Contact>
	<LoadData>
		<load_controller id="1" type="loadcurve">
			<interpolate>LINEAR</interpolate>
			<points>
				<point>0,0</point>
				<point>1,0</point>
				<point>4,3</point>
			</points>
		</load_controller>
		<load_controller id="2" type="loadcurve">
			<interpolate>LINEAR</interpolate>
			<points>
				<point>0,0</point>
				<point>0.1,-1</point>
				<point>1,-1.35</point>
				<point>2,-1.35</point>
			</points>
		</load_controller>
	</LoadData>
	<Output>
		<plotfile type="febio">
			<var type="contact gap"/>
			<var type="contact pressure"/>
			<var type="displacement"/>
			<var type="relative volume"/>
			<var type="shell director"/>
			<var type="shell strain"/>
			<var type="stress"/>
		</plotfile>
		<logfile>
			<node_data data="z" node_set="unnamed_set01"/>
		</logfile>
	</Output>
</febio_spec>
