<?xml version="1.0" encoding="ISO-8859-1"?>
<!--
Problem Description:
	Quarter disk with shell is compressed by a rigid wall.
	rigid_wall contact is prescribed with x displacement of 0.5 at t=0.5.
	Normal of rigid wall needs be against normal of shell.
Main Features:
	quad4 shells
	rigid_wall contact
Secondary Features:
Materials:
	neo-Hookean
Degrees of Freedom: 258
Results
	Steps Completed: 11
	Equilibrium Iterations: 74
	Right Hand Evaluations: 157
	Siffness Reformations: 74
	Other:
		The maximum effective stress is 0.739 units at time t=0.5.
Comments:
-->
<febio_spec version="3.0">
	<Module type="solid"/>
	<Control>
		<analysis>STATIC</analysis>
		<time_steps>10</time_steps>
		<step_size>0.1</step_size>
		<solver>
			<max_refs>15</max_refs>
			<max_ups>0</max_ups>
			<diverge_reform>1</diverge_reform>
			<reform_each_time_step>1</reform_each_time_step>
			<dtol>0.001</dtol>
			<etol>0.01</etol>
			<rtol>0</rtol>
			<lstol>0.9</lstol>
			<min_residual>1e-20</min_residual>
			<qnmethod>BFGS</qnmethod>
			<rhoi>-2</rhoi>
		</solver>
		<time_stepper>
			<dtmin>0.01</dtmin>
			<dtmax>0.1</dtmax>
			<max_retries>5</max_retries>
			<opt_iter>10</opt_iter>
		</time_stepper>
	</Control>
	<Globals>
		<Constants>
			<T>293</T>
			<R>0.008314</R>
			<Fc>0.0965</Fc>
		</Constants>
	</Globals>
	<Material>
		<material id="1" name="mat1" type="neo-Hookean">
			<density>1</density>
			<E>1</E>
			<v>0.4</v>
		</material>
		<material id="2" name="mat2" type="neo-Hookean">
			<density>1</density>
			<E>1</E>
			<v>0.4</v>
		</material>
	</Material>
	<Mesh>
		<Nodes name="Object01">
			<node id="1">-1,5.5511151e-17,0</node>
			<node id="2">-0.88888889,5.5511151e-17,0</node>
			<node id="3">-0.89267491,0.028757671,0</node>
			<node id="4">-0.90377495,0.055555555,0</node>
			<node id="5">-0.92143258,0.078567419,0</node>
			<node id="6">-0.94444444,0.096225044,0</node>
			<node id="7">-0.97124233,0.10732509,0</node>
			<node id="8">-1,0.11111111,0</node>
			<node id="9">-0.77777778,5.5511151e-17,0</node>
			<node id="10">-0.78534982,0.057515342,0</node>
			<node id="11">-0.80754991,0.11111111,0</node>
			<node id="12">-0.84286516,0.15713484,0</node>
			<node id="13">-0.88888889,0.19245009,0</node>
			<node id="14">-0.94248465,0.21465018,0</node>
			<node id="15">-0.99999999,0.22222222,0</node>
			<node id="16">-0.66666667,5.5511151e-17,0</node>
			<node id="17">-0.67802472,0.086273014,0</node>
			<node id="18">-0.71132486,0.16666666,0</node>
			<node id="19">-0.76429774,0.23570226,0</node>
			<node id="20">-0.83333333,0.28867513,0</node>
<!-- ... 108 like lines cut -->
		</Nodes>
		<Elements type="penta6" name="Part3">
			<elem id="1">1,2,3,65,66,67</elem>
			<elem id="2">1,3,4,65,67,68</elem>
			<elem id="3">1,4,5,65,68,69</elem>
			<elem id="4">1,5,6,65,69,70</elem>
			<elem id="5">1,6,7,65,70,71</elem>
			<elem id="6">1,7,8,65,71,72</elem>
		</Elements>
		<Elements type="hex8" name="Part3(2)">
			<elem id="7">2,9,10,3,66,73,74,67</elem>
			<elem id="8">3,10,11,4,67,74,75,68</elem>
			<elem id="9">4,11,12,5,68,75,76,69</elem>
			<elem id="10">5,12,13,6,69,76,77,70</elem>
			<elem id="11">6,13,14,7,70,77,78,71</elem>
			<elem id="12">7,14,15,8,71,78,79,72</elem>
			<elem id="13">9,16,17,10,73,80,81,74</elem>
			<elem id="14">10,17,18,11,74,81,82,75</elem>
			<elem id="15">11,18,19,12,75,82,83,76</elem>
			<elem id="16">12,19,20,13,76,83,84,77</elem>
			<elem id="17">13,20,21,14,77,84,85,78</elem>
			<elem id="18">14,21,22,15,78,85,86,79</elem>
			<elem id="19">16,23,24,17,80,87,88,81</elem>
			<elem id="20">17,24,25,18,81,88,89,82</elem>
			<elem id="21">18,25,26,19,82,89,90,83</elem>
			<elem id="22">19,26,27,20,83,90,91,84</elem>
			<elem id="23">20,27,28,21,84,91,92,85</elem>
			<elem id="24">21,28,29,22,85,92,93,86</elem>
			<elem id="25">23,30,31,24,87,94,95,88</elem>
			<elem id="26">24,31,32,25,88,95,96,89</elem>
<!-- ... 28 like lines cut -->
		</Elements>
		<Elements type="quad4" name="Part4">
			<elem id="55">58,59,123,122</elem>
			<elem id="56">59,60,124,123</elem>
			<elem id="57">60,61,125,124</elem>
			<elem id="58">61,62,126,125</elem>
			<elem id="59">62,63,127,126</elem>
			<elem id="60">63,64,128,127</elem>
		</Elements>
		<NodeSet name="-x">
			<n id="1"/>
			<n id="8"/>
			<n id="15"/>
			<n id="22"/>
			<n id="29"/>
			<n id="36"/>
			<n id="43"/>
			<n id="50"/>
			<n id="57"/>
			<n id="64"/>
			<n id="65"/>
			<n id="72"/>
			<n id="79"/>
			<n id="86"/>
			<n id="93"/>
			<n id="100"/>
			<n id="107"/>
			<n id="114"/>
			<n id="121"/>
			<n id="128"/>
		</NodeSet>
		<NodeSet name="-y">
			<n id="1"/>
			<n id="2"/>
			<n id="9"/>
			<n id="16"/>
			<n id="23"/>
			<n id="30"/>
			<n id="37"/>
			<n id="44"/>
			<n id="51"/>
			<n id="58"/>
			<n id="65"/>
			<n id="66"/>
			<n id="73"/>
			<n id="80"/>
			<n id="87"/>
			<n id="94"/>
			<n id="101"/>
			<n id="108"/>
			<n id="115"/>
			<n id="122"/>
		</NodeSet>
		<NodeSet name="-z">
			<n id="1"/>
			<n id="2"/>
			<n id="3"/>
			<n id="4"/>
			<n id="5"/>
			<n id="6"/>
			<n id="7"/>
			<n id="8"/>
			<n id="9"/>
			<n id="10"/>
			<n id="11"/>
			<n id="12"/>
			<n id="13"/>
			<n id="14"/>
			<n id="15"/>
			<n id="16"/>
			<n id="17"/>
			<n id="18"/>
			<n id="19"/>
			<n id="20"/>
<!-- ... 44 like lines cut -->
		</NodeSet>
		<NodeSet name="z">
			<n id="65"/>
			<n id="66"/>
			<n id="67"/>
			<n id="68"/>
			<n id="69"/>
			<n id="70"/>
			<n id="71"/>
			<n id="72"/>
			<n id="73"/>
			<n id="74"/>
			<n id="75"/>
			<n id="76"/>
			<n id="77"/>
			<n id="78"/>
			<n id="79"/>
			<n id="80"/>
			<n id="81"/>
			<n id="82"/>
			<n id="83"/>
			<n id="84"/>
<!-- ... 44 like lines cut -->
		</NodeSet>
		<Surface name="RigidWall01">
			<quad4 id="1">58,59,123,122</quad4>
			<quad4 id="2">59,60,124,123</quad4>
			<quad4 id="3">60,61,125,124</quad4>
			<quad4 id="4">61,62,126,125</quad4>
			<quad4 id="5">62,63,127,126</quad4>
			<quad4 id="6">63,64,128,127</quad4>
		</Surface>
		<ElementSet name="unnamed_set01">
			<e id="1"/>
		</ElementSet>
	</Mesh>
	<MeshDomains>
		<SolidDomain name="Part3" mat="mat1"/>
		<SolidDomain name="Part3(2)" mat="mat1"/>
		<ShellDomain name="Part4" mat="mat2"/>
	</MeshDomains>
	<MeshData>
		<ElementData var="shell thickness" elem_set="Part4">
			<e lid="1">0.01,0.01,0.01,0.01</e>
			<e lid="2">0.01,0.01,0.01,0.01</e>
			<e lid="3">0.01,0.01,0.01,0.01</e>
			<e lid="4">0.01,0.01,0.01,0.01</e>
			<e lid="5">0.01,0.01,0.01,0.01</e>
			<e lid="6">0.01,0.01,0.01,0.01</e>
		</ElementData>
	</MeshData>
	<Boundary>
		<bc name="FixedDisplacement01" type="fix" node_set="-x">
			<dofs>x</dofs>
		</bc>
		<bc name="FixedDisplacement02" type="fix" node_set="-y">
			<dofs>y</dofs>
		</bc>
		<bc name="FixedDisplacement03" type="fix" node_set="-z">
			<dofs>z</dofs>
		</bc>
		<bc name="FixedDisplacement04" type="fix" node_set="z">
			<dofs>z</dofs>
		</bc>
	</Boundary>
	<Contact>
		<contact type="rigid_wall" name="RigidWall01" surface="RigidWall01">
			<laugon>0</laugon>
			<tolerance>0.01</tolerance>
			<penalty>150</penalty>
			<offset lc="1">1</offset>
			<plane>-1,0,0,0</plane>
		</contact>
	</Contact>
	<LoadData>
		<load_controller id="1" type="loadcurve">
			<interpolate>LINEAR</interpolate>
			<points>
				<point>0,0</point>
				<point>0.5,0.4</point>
				<point>1,0</point>
			</points>
		</load_controller>
	</LoadData>
	<Output>
		<plotfile type="febio">
			<var type="contact gap"/>
			<var type="contact pressure"/>
			<var type="displacement"/>
			<var type="relative volume"/>
			<var type="shell director"/>
			<var type="shell strain"/>
			<var type="stress"/>
		</plotfile>
		<logfile>
			<element_data data="sz" elem_set="unnamed_set01"/>
		</logfile>
	</Output>
</febio_spec>
