<?xml version="1.0" encoding="ISO-8859-1"?>
<febio_spec version="3.0">
	<Module type="solid"/>
	<Control>
		<analysis>STATIC</analysis>
		<time_steps>10</time_steps>
		<step_size>0.1</step_size>
		<solver>
			<max_refs>15</max_refs>
			<max_ups>0</max_ups>
			<diverge_reform>1</diverge_reform>
			<reform_each_time_step>1</reform_each_time_step>
			<dtol>0.001</dtol>
			<etol>0.01</etol>
			<rtol>0</rtol>
			<lstol>0.9</lstol>
			<min_residual>1e-20</min_residual>
			<qnmethod>BFGS</qnmethod>
			<rhoi>-2</rhoi>
		</solver>
		<time_stepper>
			<dtmin>0.01</dtmin>
			<dtmax>0.1</dtmax>
			<max_retries>5</max_retries>
			<opt_iter>10</opt_iter>
		</time_stepper>
	</Control>
	<Globals>
		<Constants>
			<T>293</T>
			<R>0.008314</R>
			<Fc>0.0965</Fc>
		</Constants>
	</Globals>
	<Material>
		<material id="1" name="mat1" type="neo-Hookean">
			<density>1</density>
			<E>1</E>
			<v>0.4</v>
		</material>
		<material id="2" name="mat2" type="neo-Hookean">
			<density>1</density>
			<E>1</E>
			<v>0.4</v>
		</material>
		<material id="3" name="mat3" type="neo-Hookean">
			<density>1</density>
			<E>1</E>
			<v>0.4</v>
		</material>
		<material id="4" name="mat4" type="neo-Hookean">
			<density>1</density>
			<E>1</E>
			<v>0.4</v>
		</material>
	</Material>
	<Mesh>
		<Nodes name="Object01">
			<node id="1">-0.5,-0.5,0</node>
			<node id="2">-0.5,-0.5,0.5</node>
			<node id="3">-0.5,-0.5,1</node>
			<node id="4">-0.5,0,0</node>
			<node id="5">-0.5,0,0.5</node>
			<node id="6">-0.5,0,1</node>
			<node id="7">-0.5,0.5,0</node>
			<node id="8">-0.5,0.5,0.5</node>
			<node id="9">-0.5,0.5,1</node>
			<node id="10">0,-0.5,0</node>
			<node id="11">0,-0.5,0.5</node>
			<node id="12">0,-0.5,1</node>
			<node id="13">0,0,0</node>
			<node id="14">0,0,0.5</node>
			<node id="15">0,0,1</node>
			<node id="16">0,0.5,0</node>
			<node id="17">0,0.5,0.5</node>
			<node id="18">0,0.5,1</node>
			<node id="19">0.5,-0.5,0</node>
			<node id="20">0.5,-0.5,0.5</node>
<!-- ... 71 like lines cut -->
		</Nodes>
		<Elements type="hex8" name="Part3">
			<elem id="1">1,10,13,4,2,11,14,5</elem>
			<elem id="2">2,11,14,5,3,12,15,6</elem>
			<elem id="3">4,13,16,7,5,14,17,8</elem>
			<elem id="4">5,14,17,8,6,15,18,9</elem>
			<elem id="5">10,19,22,13,11,20,23,14</elem>
			<elem id="6">11,20,23,14,12,21,24,15</elem>
			<elem id="7">13,22,25,16,14,23,26,17</elem>
			<elem id="8">14,23,26,17,15,24,27,18</elem>
		</Elements>
		<Elements type="quad4" name="Part4">
			<elem id="9">19,22,23,20</elem>
			<elem id="10">20,23,24,21</elem>
			<elem id="11">22,25,26,23</elem>
			<elem id="12">23,26,27,24</elem>
		</Elements>
		<Elements type="hex8" name="Part7">
			<elem id="13">28,44,48,32,29,45,49,33</elem>
			<elem id="14">29,45,49,33,30,46,50,34</elem>
			<elem id="15">30,46,50,34,31,47,51,35</elem>
			<elem id="16">32,48,52,36,33,49,53,37</elem>
			<elem id="17">33,49,53,37,34,50,54,38</elem>
			<elem id="18">34,50,54,38,35,51,55,39</elem>
			<elem id="19">36,52,56,40,37,53,57,41</elem>
			<elem id="20">37,53,57,41,38,54,58,42</elem>
			<elem id="21">38,54,58,42,39,55,59,43</elem>
			<elem id="22">44,60,64,48,45,61,65,49</elem>
			<elem id="23">45,61,65,49,46,62,66,50</elem>
			<elem id="24">46,62,66,50,47,63,67,51</elem>
			<elem id="25">48,64,68,52,49,65,69,53</elem>
			<elem id="26">49,65,69,53,50,66,70,54</elem>
			<elem id="27">50,66,70,54,51,67,71,55</elem>
			<elem id="28">52,68,72,56,53,69,73,57</elem>
			<elem id="29">53,69,73,57,54,70,74,58</elem>
			<elem id="30">54,70,74,58,55,71,75,59</elem>
			<elem id="31">60,76,80,64,61,77,81,65</elem>
			<elem id="32">61,77,81,65,62,78,82,66</elem>
<!-- ... 7 like lines cut -->
		</Elements>
		<Elements type="quad4" name="Part8">
			<elem id="40">40,36,37,41</elem>
			<elem id="41">41,37,38,42</elem>
			<elem id="42">42,38,39,43</elem>
			<elem id="43">36,32,33,37</elem>
			<elem id="44">37,33,34,38</elem>
			<elem id="45">38,34,35,39</elem>
			<elem id="46">32,28,29,33</elem>
			<elem id="47">33,29,30,34</elem>
			<elem id="48">34,30,31,35</elem>
		</Elements>
		<NodeSet name="box1-x">
			<n id="1"/>
			<n id="2"/>
			<n id="3"/>
			<n id="4"/>
			<n id="5"/>
			<n id="6"/>
			<n id="7"/>
			<n id="8"/>
			<n id="9"/>
		</NodeSet>
		<NodeSet name="box2x">
			<n id="76"/>
			<n id="77"/>
			<n id="78"/>
			<n id="79"/>
			<n id="80"/>
			<n id="81"/>
			<n id="82"/>
			<n id="83"/>
			<n id="84"/>
			<n id="85"/>
			<n id="86"/>
			<n id="87"/>
			<n id="88"/>
			<n id="89"/>
			<n id="90"/>
			<n id="91"/>
		</NodeSet>
		<Surface name="PrimarySurface01">
			<quad4 id="1">19,22,23,20</quad4>
			<quad4 id="2">20,23,24,21</quad4>
			<quad4 id="3">22,25,26,23</quad4>
			<quad4 id="4">23,26,27,24</quad4>
		</Surface>
		<Surface name="SecondarySurface01">
			<quad4 id="1">32,28,29,33</quad4>
			<quad4 id="2">33,29,30,34</quad4>
			<quad4 id="3">34,30,31,35</quad4>
			<quad4 id="4">36,32,33,37</quad4>
			<quad4 id="5">37,33,34,38</quad4>
			<quad4 id="6">38,34,35,39</quad4>
			<quad4 id="7">40,36,37,41</quad4>
			<quad4 id="8">41,37,38,42</quad4>
			<quad4 id="9">42,38,39,43</quad4>
		</Surface>
		<ElementSet name="unnamed_set01">
			<e id="10"/>
		</ElementSet>
		<SurfacePair name="TiedElasticInterface01">
			<primary>PrimarySurface01</primary>
			<secondary>SecondarySurface01</secondary>
		</SurfacePair>
	</Mesh>
	<MeshDomains>
		<SolidDomain name="Part3" mat="mat1"/>
		<ShellDomain name="Part4" mat="mat2"/>
		<SolidDomain name="Part7" mat="mat4"/>
		<ShellDomain name="Part8" mat="mat3"/>
	</MeshDomains>
	<MeshData>
		<ElementData var="shell thickness" elem_set="Part4">
			<e lid="1">0.01,0.01,0.01,0.01</e>
			<e lid="2">0.01,0.01,0.01,0.01</e>
			<e lid="3">0.01,0.01,0.01,0.01</e>
			<e lid="4">0.01,0.01,0.01,0.01</e>
		</ElementData>
		<ElementData var="shell thickness" elem_set="Part8">
			<e lid="1">0.01,0.01,0.01,0.01</e>
			<e lid="2">0.01,0.01,0.01,0.01</e>
			<e lid="3">0.01,0.01,0.01,0.01</e>
			<e lid="4">0.01,0.01,0.01,0.01</e>
			<e lid="5">0.01,0.01,0.01,0.01</e>
			<e lid="6">0.01,0.01,0.01,0.01</e>
			<e lid="7">0.01,0.01,0.01,0.01</e>
			<e lid="8">0.01,0.01,0.01,0.01</e>
			<e lid="9">0.01,0.01,0.01,0.01</e>
		</ElementData>
	</MeshData>
	<Boundary>
		<bc name="FixedDisplacement01" type="fix" node_set="box1-x">
			<dofs>x,y,z</dofs>
		</bc>
		<bc name="box2x" type="prescribe" node_set="box2x">
			<dof>x</dof>
			<scale lc="1">1</scale>
			<relative>0</relative>
		</bc>
	</Boundary>
	<Contact>
		<contact type="tied-elastic" name="TiedElasticInterface01" surface_pair="TiedElasticInterface01">
			<laugon>0</laugon>
			<tolerance>0.05</tolerance>
			<gaptol>0.01</gaptol>
			<penalty>100</penalty>
			<auto_penalty>1</auto_penalty>
			<two_pass>1</two_pass>
			<knmult>1</knmult>
			<search_tol>0.01</search_tol>
			<symmetric_stiffness>0</symmetric_stiffness>
			<search_radius>1</search_radius>
			<minaug>0</minaug>
			<maxaug>10</maxaug>
			<update_penalty>0</update_penalty>
		</contact>
	</Contact>
	<LoadData>
		<load_controller id="1" type="loadcurve">
			<interpolate>LINEAR</interpolate>
			<points>
				<point>0,0</point>
				<point>1,0.5</point>
			</points>
		</load_controller>
	</LoadData>
	<Output>
		<plotfile type="febio">
			<var type="contact gap"/>
			<var type="contact pressure"/>
			<var type="displacement"/>
			<var type="relative volume"/>
			<var type="shell director"/>
			<var type="shell strain"/>
			<var type="stress"/>
		</plotfile>
		<logfile>
			<element_data data="sx" elem_set="unnamed_set01"/>
		</logfile>
	</Output>
</febio_spec>
