<?xml version="1.0" encoding="ISO-8859-1"?>
<febio_spec version="3.0">
	<Module type="solid"/>
	<Control>
		<analysis>STATIC</analysis>
		<time_steps>10</time_steps>
		<step_size>0.1</step_size>
		<solver>
			<max_refs>15</max_refs>
			<max_ups>0</max_ups>
			<diverge_reform>1</diverge_reform>
			<reform_each_time_step>1</reform_each_time_step>
			<dtol>0.001</dtol>
			<etol>0.01</etol>
			<rtol>0</rtol>
			<lstol>0.9</lstol>
			<min_residual>1e-20</min_residual>
			<qnmethod>BFGS</qnmethod>
			<rhoi>-2</rhoi>
			<symmetric_stiffness>0</symmetric_stiffness>
		</solver>
		<time_stepper>
			<dtmin>0.01</dtmin>
			<dtmax>0.1</dtmax>
			<max_retries>5</max_retries>
			<opt_iter>10</opt_iter>
		</time_stepper>
	</Control>
	<Globals>
		<Constants>
			<T>293</T>
			<R>0.008314</R>
			<Fc>0.0965</Fc>
		</Constants>
	</Globals>
	<Material>
		<material id="1" name="mat1" type="neo-Hookean">
			<density>1</density>
			<E>1</E>
			<v>0</v>
		</material>
		<material id="2" name="mat2" type="rigid body">
			<density>1</density>
		</material>
	</Material>
	<Mesh>
		<Nodes name="Object01">
			<node id="1">-2.5,-2.5,0</node>
			<node id="2">-2.5,-2.3,0</node>
			<node id="3">-2.5,-2.1,0</node>
			<node id="4">-2.5,-1.9,0</node>
			<node id="5">-2.5,-1.7,0</node>
			<node id="6">-2.5,-1.5,0</node>
			<node id="7">-2.5,-1.3,0</node>
			<node id="8">-2.5,-1.1,0</node>
			<node id="9">-2.5,-0.9,0</node>
			<node id="10">-2.5,-0.7,0</node>
			<node id="11">-2.5,-0.5,0</node>
			<node id="12">-2.5,-0.3,0</node>
			<node id="13">-2.5,-0.1,0</node>
			<node id="14">-2.5,0.1,0</node>
			<node id="15">-2.5,0.3,0</node>
			<node id="16">-2.5,0.5,0</node>
			<node id="17">-2.5,0.7,0</node>
			<node id="18">-2.5,0.9,0</node>
			<node id="19">-2.5,1.1,0</node>
			<node id="20">-2.5,1.3,0</node>
<!-- ... 664 like lines cut -->
		</Nodes>
		<Elements type="quad4" name="Part3">
			<elem id="1">1,27,28,2</elem>
			<elem id="2">2,28,29,3</elem>
			<elem id="3">3,29,30,4</elem>
			<elem id="4">4,30,31,5</elem>
			<elem id="5">5,31,32,6</elem>
			<elem id="6">6,32,33,7</elem>
			<elem id="7">7,33,34,8</elem>
			<elem id="8">8,34,35,9</elem>
			<elem id="9">9,35,36,10</elem>
			<elem id="10">10,36,37,11</elem>
			<elem id="11">11,37,38,12</elem>
			<elem id="12">12,38,39,13</elem>
			<elem id="13">13,39,40,14</elem>
			<elem id="14">14,40,41,15</elem>
			<elem id="15">15,41,42,16</elem>
			<elem id="16">16,42,43,17</elem>
			<elem id="17">17,43,44,18</elem>
			<elem id="18">18,44,45,19</elem>
			<elem id="19">19,45,46,20</elem>
			<elem id="20">20,46,47,21</elem>
<!-- ... 605 like lines cut -->
		</Elements>
		<Elements type="hex8" name="Part6">
			<elem id="626">677,681,683,679,678,682,684,680</elem>
		</Elements>
		<NodeSet name="patch-x">
			<n id="1"/>
			<n id="2"/>
			<n id="3"/>
			<n id="4"/>
			<n id="5"/>
			<n id="6"/>
			<n id="7"/>
			<n id="8"/>
			<n id="9"/>
			<n id="10"/>
			<n id="11"/>
			<n id="12"/>
			<n id="13"/>
			<n id="14"/>
			<n id="15"/>
			<n id="16"/>
			<n id="17"/>
			<n id="18"/>
			<n id="19"/>
			<n id="20"/>
<!-- ... 6 like lines cut -->
		</NodeSet>
		<NodeSet name="patchx">
			<n id="651"/>
			<n id="652"/>
			<n id="653"/>
			<n id="654"/>
			<n id="655"/>
			<n id="656"/>
			<n id="657"/>
			<n id="658"/>
			<n id="659"/>
			<n id="660"/>
			<n id="661"/>
			<n id="662"/>
			<n id="663"/>
			<n id="664"/>
			<n id="665"/>
			<n id="666"/>
			<n id="667"/>
			<n id="668"/>
			<n id="669"/>
			<n id="670"/>
<!-- ... 6 like lines cut -->
		</NodeSet>
		<NodeSet name="patch-y">
			<n id="1"/>
			<n id="27"/>
			<n id="53"/>
			<n id="79"/>
			<n id="105"/>
			<n id="131"/>
			<n id="157"/>
			<n id="183"/>
			<n id="209"/>
			<n id="235"/>
			<n id="261"/>
			<n id="287"/>
			<n id="313"/>
			<n id="339"/>
			<n id="365"/>
			<n id="391"/>
			<n id="417"/>
			<n id="443"/>
			<n id="469"/>
			<n id="495"/>
<!-- ... 6 like lines cut -->
		</NodeSet>
		<NodeSet name="patchy">
			<n id="26"/>
			<n id="52"/>
			<n id="78"/>
			<n id="104"/>
			<n id="130"/>
			<n id="156"/>
			<n id="182"/>
			<n id="208"/>
			<n id="234"/>
			<n id="260"/>
			<n id="286"/>
			<n id="312"/>
			<n id="338"/>
			<n id="364"/>
			<n id="390"/>
			<n id="416"/>
			<n id="442"/>
			<n id="468"/>
			<n id="494"/>
			<n id="520"/>
<!-- ... 6 like lines cut -->
		</NodeSet>
		<Surface name="PrimarySurface01">
			<quad4 id="1">1,27,28,2</quad4>
			<quad4 id="2">2,28,29,3</quad4>
			<quad4 id="3">3,29,30,4</quad4>
			<quad4 id="4">4,30,31,5</quad4>
			<quad4 id="5">5,31,32,6</quad4>
			<quad4 id="6">6,32,33,7</quad4>
			<quad4 id="7">7,33,34,8</quad4>
			<quad4 id="8">8,34,35,9</quad4>
			<quad4 id="9">9,35,36,10</quad4>
			<quad4 id="10">10,36,37,11</quad4>
			<quad4 id="11">11,37,38,12</quad4>
			<quad4 id="12">12,38,39,13</quad4>
			<quad4 id="13">13,39,40,14</quad4>
			<quad4 id="14">14,40,41,15</quad4>
			<quad4 id="15">15,41,42,16</quad4>
			<quad4 id="16">16,42,43,17</quad4>
			<quad4 id="17">17,43,44,18</quad4>
			<quad4 id="18">18,44,45,19</quad4>
			<quad4 id="19">19,45,46,20</quad4>
			<quad4 id="20">20,46,47,21</quad4>
<!-- ... 605 like lines cut -->
		</Surface>
		<Surface name="SecondarySurface01">
			<quad4 id="1">679,683,681,677</quad4>
		</Surface>
		<ElementSet name="unnamed_set01">
			<e id="213"/>
		</ElementSet>
		<SurfacePair name="TCInterface01">
			<primary>PrimarySurface01</primary>
			<secondary>SecondarySurface01</secondary>
		</SurfacePair>
	</Mesh>
	<MeshDomains>
		<ShellDomain name="Part3" mat="mat1"/>
		<SolidDomain name="Part6" mat="mat2"/>
	</MeshDomains>
	<MeshData>
		<ElementData var="shell thickness" elem_set="Part3">
			<e lid="1">0.01,0.01,0.01,0.01</e>
			<e lid="2">0.01,0.01,0.01,0.01</e>
			<e lid="3">0.01,0.01,0.01,0.01</e>
			<e lid="4">0.01,0.01,0.01,0.01</e>
			<e lid="5">0.01,0.01,0.01,0.01</e>
			<e lid="6">0.01,0.01,0.01,0.01</e>
			<e lid="7">0.01,0.01,0.01,0.01</e>
			<e lid="8">0.01,0.01,0.01,0.01</e>
			<e lid="9">0.01,0.01,0.01,0.01</e>
			<e lid="10">0.01,0.01,0.01,0.01</e>
			<e lid="11">0.01,0.01,0.01,0.01</e>
			<e lid="12">0.01,0.01,0.01,0.01</e>
			<e lid="13">0.01,0.01,0.01,0.01</e>
			<e lid="14">0.01,0.01,0.01,0.01</e>
			<e lid="15">0.01,0.01,0.01,0.01</e>
			<e lid="16">0.01,0.01,0.01,0.01</e>
			<e lid="17">0.01,0.01,0.01,0.01</e>
			<e lid="18">0.01,0.01,0.01,0.01</e>
			<e lid="19">0.01,0.01,0.01,0.01</e>
			<e lid="20">0.01,0.01,0.01,0.01</e>
<!-- ... 605 like lines cut -->
		</ElementData>
	</MeshData>
	<Boundary>
		<bc name="FixedDisplacement01" type="fix" node_set="patch-x">
			<dofs>x,y,z</dofs>
		</bc>
		<bc name="FixedDisplacement02" type="fix" node_set="patchx">
			<dofs>x,y,z</dofs>
		</bc>
		<bc name="FixedDisplacement03" type="fix" node_set="patch-y">
			<dofs>x,y,z</dofs>
		</bc>
		<bc name="FixedDisplacement04" type="fix" node_set="patchy">
			<dofs>x,y,z</dofs>
		</bc>
	</Boundary>
	<Rigid>
		<rigid_constraint name="RigidDisplacement48" type="prescribe">
			<rb>2</rb>
			<dof>Rz</dof>
			<value lc="1">1</value>
		</rigid_constraint>
		<rigid_constraint name="RigidFixed120" type="fix">
			<rb>2</rb>
			<dofs>Rx,Ry,Ru,Rv,Rw</dofs>
		</rigid_constraint>
	</Rigid>
	<Contact>
		<contact type="sliding-elastic" name="TCInterface01" surface_pair="TCInterface01">
			<laugon>0</laugon>
			<tolerance>0.01</tolerance>
			<gaptol>0</gaptol>
			<penalty>0.01</penalty>
			<auto_penalty>0</auto_penalty>
			<two_pass>1</two_pass>
			<search_tol>0.01</search_tol>
			<symmetric_stiffness>0</symmetric_stiffness>
			<search_radius>1</search_radius>
			<seg_up>0</seg_up>
			<tension>0</tension>
			<minaug>0</minaug>
			<maxaug>10</maxaug>
			<fric_coeff>0</fric_coeff>
			<smooth_aug>0</smooth_aug>
			<node_reloc>0</node_reloc>
			<flip_primary>0</flip_primary>
			<flip_secondary>0</flip_secondary>
			<knmult>0</knmult>
			<update_penalty>0</update_penalty>
		</contact>
	</Contact>
	<LoadData>
		<load_controller id="1" type="loadcurve">
			<interpolate>LINEAR</interpolate>
			<points>
				<point>0,0</point>
				<point>0.1,-1.5</point>
				<point>1,-2</point>
			</points>
		</load_controller>
	</LoadData>
	<Output>
		<plotfile type="febio">
			<var type="contact gap"/>
			<var type="contact pressure"/>
			<var type="displacement"/>
			<var type="relative volume"/>
			<var type="shell director"/>
			<var type="shell strain"/>
			<var type="stress"/>
		</plotfile>
		<logfile>
			<element_data data="sx" elem_set="unnamed_set01"/>
		</logfile>
	</Output>
</febio_spec>
