<?xml version="1.0" encoding="ISO-8859-1"?>
<!--
Problem Description:
	Strip with shell constrained with rigid box is pulled off from a rigid surface using sticky contact.
	Rigid box is prescribed z displacement of 4 at t=1.
Main Features:
	quad4 shells
	sticky contact
Secondary Features:
Materials:
	neo-Hookean
Degrees of Freedom: 1203
Results
	Steps Completed: 15
	Equilibrium Iterations: 81
	Right Hand Evaluations: 101
	Siffness Reformations: 81
	Other:
		The maximum effective stress is 0.0374 units at time t=1.
Comments:
-->
<febio_spec version="3.0">
	<Module type="solid"/>
	<Control>
		<analysis>STATIC</analysis>
		<time_steps>100</time_steps>
		<step_size>0.01</step_size>
		<solver>
			<max_refs>15</max_refs>
			<max_ups>0</max_ups>
			<diverge_reform>1</diverge_reform>
			<reform_each_time_step>1</reform_each_time_step>
			<dtol>0.001</dtol>
			<etol>0.01</etol>
			<rtol>0</rtol>
			<lstol>0.9</lstol>
			<min_residual>1e-20</min_residual>
			<qnmethod>BFGS</qnmethod>
			<rhoi>-2</rhoi>
		</solver>
		<time_stepper>
			<dtmin>0.01</dtmin>
			<dtmax lc="1"></dtmax>
			<max_retries>5</max_retries>
			<opt_iter>10</opt_iter>
		</time_stepper>
	</Control>
	<Globals>
		<Constants>
			<T>293</T>
			<R>0.008314</R>
			<Fc>0.0965</Fc>
		</Constants>
	</Globals>
	<Material>
		<material id="1" name="mat1" type="rigid body">
			<density>1</density>
			<center_of_mass>0,0,0</center_of_mass>
		</material>
		<material id="2" name="mat2" type="neo-Hookean">
			<density>1</density>
			<E>1</E>
			<v>0</v>
		</material>
		<material id="3" name="mat3" type="neo-Hookean">
			<density>1</density>
			<E>1</E>
			<v>0</v>
		</material>
		<material id="4" name="mat4" type="rigid body">
			<density>1</density>
			<center_of_mass>4,0,0.5</center_of_mass>
		</material>
	</Material>
	<Mesh>
		<Nodes name="Object01">
			<node id="1">-5,-5,0</node>
			<node id="2">-5,5,0</node>
			<node id="3">5,-5,0</node>
			<node id="4">5,5,0</node>
			<node id="5">-4.5,-0.5,0</node>
			<node id="6">-4.5,-0.5,0.25</node>
			<node id="7">-4.5,-0.5,0.5</node>
			<node id="8">-4.5,-0.16666667,0</node>
			<node id="9">-4.5,-0.16666667,0.25</node>
			<node id="10">-4.5,-0.16666667,0.5</node>
			<node id="11">-4.5,0.16666667,0</node>
			<node id="12">-4.5,0.16666667,0.25</node>
			<node id="13">-4.5,0.16666667,0.5</node>
			<node id="14">-4.5,0.5,0</node>
			<node id="15">-4.5,0.5,0.25</node>
			<node id="16">-4.5,0.5,0.5</node>
			<node id="17">-4.14,-0.5,0</node>
			<node id="18">-4.14,-0.5,0.25</node>
			<node id="19">-4.14,-0.5,0.5</node>
			<node id="20">-4.14,-0.16666667,0</node>
<!-- ... 304 like lines cut -->
		</Nodes>
		<Elements type="quad4" name="Part1">
			<elem id="1">1,3,4,2</elem>
		</Elements>
		<Elements type="hex8" name="Part4">
			<elem id="2">5,17,20,8,6,18,21,9</elem>
			<elem id="3">6,18,21,9,7,19,22,10</elem>
			<elem id="4">8,20,23,11,9,21,24,12</elem>
			<elem id="5">9,21,24,12,10,22,25,13</elem>
			<elem id="6">11,23,26,14,12,24,27,15</elem>
			<elem id="7">12,24,27,15,13,25,28,16</elem>
			<elem id="8">17,29,32,20,18,30,33,21</elem>
			<elem id="9">18,30,33,21,19,31,34,22</elem>
			<elem id="10">20,32,35,23,21,33,36,24</elem>
			<elem id="11">21,33,36,24,22,34,37,25</elem>
			<elem id="12">23,35,38,26,24,36,39,27</elem>
			<elem id="13">24,36,39,27,25,37,40,28</elem>
			<elem id="14">29,41,44,32,30,42,45,33</elem>
			<elem id="15">30,42,45,33,31,43,46,34</elem>
			<elem id="16">32,44,47,35,33,45,48,36</elem>
			<elem id="17">33,45,48,36,34,46,49,37</elem>
			<elem id="18">35,47,50,38,36,48,51,39</elem>
			<elem id="19">36,48,51,39,37,49,52,40</elem>
			<elem id="20">41,53,56,44,42,54,57,45</elem>
			<elem id="21">42,54,57,45,43,55,58,46</elem>
<!-- ... 130 like lines cut -->
		</Elements>
		<Elements type="quad4" name="Part5">
			<elem id="152">11,14,26,23</elem>
			<elem id="153">8,11,23,20</elem>
			<elem id="154">5,8,20,17</elem>
			<elem id="155">23,26,38,35</elem>
			<elem id="156">20,23,35,32</elem>
			<elem id="157">17,20,32,29</elem>
			<elem id="158">35,38,50,47</elem>
			<elem id="159">32,35,47,44</elem>
			<elem id="160">29,32,44,41</elem>
			<elem id="161">47,50,62,59</elem>
			<elem id="162">44,47,59,56</elem>
			<elem id="163">41,44,56,53</elem>
			<elem id="164">59,62,74,71</elem>
			<elem id="165">56,59,71,68</elem>
			<elem id="166">53,56,68,65</elem>
			<elem id="167">71,74,86,83</elem>
			<elem id="168">68,71,83,80</elem>
			<elem id="169">65,68,80,77</elem>
			<elem id="170">83,86,98,95</elem>
			<elem id="171">80,83,95,92</elem>
<!-- ... 55 like lines cut -->
		</Elements>
		<Elements type="hex8" name="Part6">
			<elem id="227">317,321,323,319,318,322,324,320</elem>
		</Elements>
		<NodeSet name="RigidNodeset 1">
			<n id="271"/>
			<n id="274"/>
			<n id="277"/>
			<n id="280"/>
			<n id="283"/>
			<n id="286"/>
			<n id="289"/>
			<n id="292"/>
			<n id="295"/>
			<n id="298"/>
			<n id="301"/>
			<n id="304"/>
			<n id="307"/>
			<n id="310"/>
			<n id="313"/>
			<n id="316"/>
		</NodeSet>
		<Surface name="PrimarySurface01">
			<quad4 id="1">8,20,17,5</quad4>
			<quad4 id="2">11,23,20,8</quad4>
			<quad4 id="3">14,26,23,11</quad4>
			<quad4 id="4">20,32,29,17</quad4>
			<quad4 id="5">23,35,32,20</quad4>
			<quad4 id="6">26,38,35,23</quad4>
			<quad4 id="7">32,44,41,29</quad4>
			<quad4 id="8">35,47,44,32</quad4>
			<quad4 id="9">38,50,47,35</quad4>
			<quad4 id="10">44,56,53,41</quad4>
			<quad4 id="11">47,59,56,44</quad4>
			<quad4 id="12">50,62,59,47</quad4>
			<quad4 id="13">56,68,65,53</quad4>
			<quad4 id="14">59,71,68,56</quad4>
			<quad4 id="15">62,74,71,59</quad4>
			<quad4 id="16">68,80,77,65</quad4>
			<quad4 id="17">71,83,80,68</quad4>
			<quad4 id="18">74,86,83,71</quad4>
			<quad4 id="19">80,92,89,77</quad4>
			<quad4 id="20">83,95,92,80</quad4>
<!-- ... 55 like lines cut -->
		</Surface>
		<Surface name="SecondarySurface01">
			<quad4 id="1">1,3,4,2</quad4>
		</Surface>
		<ElementSet name="unnamed_set01">
			<e id="64"/>
		</ElementSet>
		<SurfacePair name="StickyInterface01">
			<primary>PrimarySurface01</primary>
			<secondary>SecondarySurface01</secondary>
		</SurfacePair>
	</Mesh>
	<MeshDomains>
		<ShellDomain name="Part1" mat="mat1"/>
		<SolidDomain name="Part4" mat="mat3"/>
		<ShellDomain name="Part5" mat="mat2"/>
		<SolidDomain name="Part6" mat="mat4"/>
	</MeshDomains>
	<MeshData>
		<ElementData var="shell thickness" elem_set="Part1">
			<e lid="1">0.01,0.01,0.01,0.01</e>
		</ElementData>
		<ElementData var="shell thickness" elem_set="Part5">
			<e lid="1">0.01,0.01,0.01,0.01</e>
			<e lid="2">0.01,0.01,0.01,0.01</e>
			<e lid="3">0.01,0.01,0.01,0.01</e>
			<e lid="4">0.01,0.01,0.01,0.01</e>
			<e lid="5">0.01,0.01,0.01,0.01</e>
			<e lid="6">0.01,0.01,0.01,0.01</e>
			<e lid="7">0.01,0.01,0.01,0.01</e>
			<e lid="8">0.01,0.01,0.01,0.01</e>
			<e lid="9">0.01,0.01,0.01,0.01</e>
			<e lid="10">0.01,0.01,0.01,0.01</e>
			<e lid="11">0.01,0.01,0.01,0.01</e>
			<e lid="12">0.01,0.01,0.01,0.01</e>
			<e lid="13">0.01,0.01,0.01,0.01</e>
			<e lid="14">0.01,0.01,0.01,0.01</e>
			<e lid="15">0.01,0.01,0.01,0.01</e>
			<e lid="16">0.01,0.01,0.01,0.01</e>
			<e lid="17">0.01,0.01,0.01,0.01</e>
			<e lid="18">0.01,0.01,0.01,0.01</e>
			<e lid="19">0.01,0.01,0.01,0.01</e>
			<e lid="20">0.01,0.01,0.01,0.01</e>
<!-- ... 55 like lines cut -->
		</ElementData>
	</MeshData>
	<Boundary>
		<bc name="RigidInterface04" type="rigid" node_set="RigidNodeset 1">
			<rb>4</rb>
		</bc>
	</Boundary>
	<Rigid>
		<rigid_constraint name="RigidFixed122" type="fix">
			<rb>1</rb>
			<dofs>Rx,Ry,Rz,Ru,Rv,Rw</dofs>
		</rigid_constraint>
		<rigid_constraint name="RigidDisplacement50" type="prescribe">
			<rb>4</rb>
			<dof>Rz</dof>
			<value lc="2">4</value>
		</rigid_constraint>
		<rigid_constraint name="RigidFixed123" type="fix">
			<rb>4</rb>
			<dofs>Ry,Ru,Rw</dofs>
		</rigid_constraint>
	</Rigid>
	<Contact>
		<contact type="sticky" name="StickyInterface01" surface_pair="StickyInterface01">
			<laugon>0</laugon>
			<tolerance>0.2</tolerance>
			<penalty>1</penalty>
			<minaug>0</minaug>
			<maxaug>10</maxaug>
			<snap_tol>0.01</snap_tol>
			<max_traction>0.01</max_traction>
		</contact>
	</Contact>
	<LoadData>
		<load_controller id="1" type="loadcurve">
			<interpolate>STEP</interpolate>
			<points>
				<point>0,0</point>
				<point>0.5,0.1</point>
				<point>1,0.1</point>
			</points>
		</load_controller>
		<load_controller id="2" type="loadcurve">
			<interpolate>LINEAR</interpolate>
			<points>
				<point>0,0</point>
				<point>1,1</point>
			</points>
		</load_controller>
	</LoadData>
	<Output>
		<plotfile type="febio">
			<var type="contact gap"/>
			<var type="contact pressure"/>
			<var type="displacement"/>
			<var type="relative volume"/>
			<var type="shell director"/>
			<var type="shell strain"/>
			<var type="stress"/>
		</plotfile>
		<logfile>
			<element_data data="sx" elem_set="unnamed_set01"/>
		</logfile>
	</Output>
</febio_spec>
