<?xml version="1.0" encoding="ISO-8859-1"?>
<!--
Cantilever shell(quad8) is applied body force along z direction.
constant body load is prescribed along z of 1.
Front and back face of left edge of shell is fixed.
-->
<febio_spec version="3.0">
	<Module type="solid"/>
	<Control>
		<analysis>DYNAMIC</analysis>
		<time_steps>200</time_steps>
		<step_size>0.1</step_size>
		<solver>
			<max_refs>15</max_refs>
			<max_ups>0</max_ups>
			<diverge_reform>1</diverge_reform>
			<reform_each_time_step>1</reform_each_time_step>
			<dtol>0.001</dtol>
			<etol>0.01</etol>
			<rtol>0</rtol>
			<lstol>0.9</lstol>
			<min_residual>1e-20</min_residual>
			<qnmethod>BFGS</qnmethod>
			<rhoi>-2</rhoi>
			<alpha>1</alpha>
			<beta>0.25</beta>
			<gamma>0.5</gamma>
		</solver>
		<time_stepper>
			<dtmin>0.01</dtmin>
			<dtmax>0.1</dtmax>
			<max_retries>5</max_retries>
			<opt_iter>10</opt_iter>
		</time_stepper>
	</Control>
	<Globals>
		<Constants>
			<T>293</T>
			<R>0.008314</R>
			<Fc>0.0965</Fc>
		</Constants>
	</Globals>
	<Material>
		<material id="1" name="shell2" type="neo-Hookean">
			<density>1</density>
			<E>100000000</E>
			<v>0</v>
		</material>
	</Material>
	<Mesh>
		<Nodes name="Object01">
			<node id="1">-10,-1,0</node>
			<node id="2">-10,0,0</node>
			<node id="3">-10,1,0</node>
			<node id="4">-9,-1,0</node>
			<node id="5">-9,0,0</node>
			<node id="6">-9,1,0</node>
			<node id="7">-8,-1,0</node>
			<node id="8">-8,0,0</node>
			<node id="9">-8,1,0</node>
			<node id="10">-7,-1,0</node>
			<node id="11">-7,0,0</node>
			<node id="12">-7,1,0</node>
			<node id="13">-6,-1,0</node>
			<node id="14">-6,0,0</node>
			<node id="15">-6,1,0</node>
			<node id="16">-5,-1,0</node>
			<node id="17">-5,0,0</node>
			<node id="18">-5,1,0</node>
			<node id="19">-4,-1,0</node>
			<node id="20">-4,0,0</node>
<!-- ... 145 like lines cut -->
		</Nodes>
		<Elements type="quad8" name="Part3">
			<elem id="1">1,4,5,2,64,69,66,65</elem>
			<elem id="2">2,5,6,3,66,71,68,67</elem>
			<elem id="3">4,7,8,5,70,74,72,69</elem>
			<elem id="4">5,8,9,6,72,76,73,71</elem>
			<elem id="5">7,10,11,8,75,79,77,74</elem>
			<elem id="6">8,11,12,9,77,81,78,76</elem>
			<elem id="7">10,13,14,11,80,84,82,79</elem>
			<elem id="8">11,14,15,12,82,86,83,81</elem>
			<elem id="9">13,16,17,14,85,89,87,84</elem>
			<elem id="10">14,17,18,15,87,91,88,86</elem>
			<elem id="11">16,19,20,17,90,94,92,89</elem>
			<elem id="12">17,20,21,18,92,96,93,91</elem>
			<elem id="13">19,22,23,20,95,99,97,94</elem>
			<elem id="14">20,23,24,21,97,101,98,96</elem>
			<elem id="15">22,25,26,23,100,104,102,99</elem>
			<elem id="16">23,26,27,24,102,106,103,101</elem>
			<elem id="17">25,28,29,26,105,109,107,104</elem>
			<elem id="18">26,29,30,27,107,111,108,106</elem>
			<elem id="19">28,31,32,29,110,114,112,109</elem>
			<elem id="20">29,32,33,30,112,116,113,111</elem>
<!-- ... 20 like lines cut -->
		</Elements>
		<NodeSet name="patch-x">
			<n id="1"/>
			<n id="2"/>
			<n id="3"/>
			<n id="65"/>
			<n id="67"/>
		</NodeSet>
		<NodeSet name="patch-x">
			<n id="1"/>
			<n id="2"/>
			<n id="3"/>
			<n id="65"/>
			<n id="67"/>
		</NodeSet>
		<NodeSet name="patchz">
			<n id="1"/>
			<n id="2"/>
			<n id="3"/>
			<n id="4"/>
			<n id="5"/>
			<n id="6"/>
			<n id="7"/>
			<n id="8"/>
			<n id="9"/>
			<n id="10"/>
			<n id="11"/>
			<n id="12"/>
			<n id="13"/>
			<n id="14"/>
			<n id="15"/>
			<n id="16"/>
			<n id="17"/>
			<n id="18"/>
			<n id="19"/>
			<n id="20"/>
<!-- ... 145 like lines cut -->
		</NodeSet>
		<NodeSet name="unnamed_set01">
			<n id="4"/>
		</NodeSet>
		<NodeSet name="unnamed_set01">
			<n id="4"/>
		</NodeSet>
	</Mesh>
	<MeshDomains>
		<ShellDomain name="Part3" mat="shell2"/>
	</MeshDomains>
	<MeshData>
		<ElementData var="shell thickness" elem_set="Part3">
			<e lid="1">0.01,0.01,0.01,0.01,0.01,0.01,0.01,0.01</e>
			<e lid="2">0.01,0.01,0.01,0.01,0.01,0.01,0.01,0.01</e>
			<e lid="3">0.01,0.01,0.01,0.01,0.01,0.01,0.01,0.01</e>
			<e lid="4">0.01,0.01,0.01,0.01,0.01,0.01,0.01,0.01</e>
			<e lid="5">0.01,0.01,0.01,0.01,0.01,0.01,0.01,0.01</e>
			<e lid="6">0.01,0.01,0.01,0.01,0.01,0.01,0.01,0.01</e>
			<e lid="7">0.01,0.01,0.01,0.01,0.01,0.01,0.01,0.01</e>
			<e lid="8">0.01,0.01,0.01,0.01,0.01,0.01,0.01,0.01</e>
			<e lid="9">0.01,0.01,0.01,0.01,0.01,0.01,0.01,0.01</e>
			<e lid="10">0.01,0.01,0.01,0.01,0.01,0.01,0.01,0.01</e>
			<e lid="11">0.01,0.01,0.01,0.01,0.01,0.01,0.01,0.01</e>
			<e lid="12">0.01,0.01,0.01,0.01,0.01,0.01,0.01,0.01</e>
			<e lid="13">0.01,0.01,0.01,0.01,0.01,0.01,0.01,0.01</e>
			<e lid="14">0.01,0.01,0.01,0.01,0.01,0.01,0.01,0.01</e>
			<e lid="15">0.01,0.01,0.01,0.01,0.01,0.01,0.01,0.01</e>
			<e lid="16">0.01,0.01,0.01,0.01,0.01,0.01,0.01,0.01</e>
			<e lid="17">0.01,0.01,0.01,0.01,0.01,0.01,0.01,0.01</e>
			<e lid="18">0.01,0.01,0.01,0.01,0.01,0.01,0.01,0.01</e>
			<e lid="19">0.01,0.01,0.01,0.01,0.01,0.01,0.01,0.01</e>
			<e lid="20">0.01,0.01,0.01,0.01,0.01,0.01,0.01,0.01</e>
<!-- ... 20 like lines cut -->
		</ElementData>
	</MeshData>
	<Boundary>
		<bc name="FixedDisplacement01" type="fix" node_set="patch-x">
			<dofs>x,y,z</dofs>
		</bc>
		<bc name="FixedShellDisplacement01" type="fix" node_set="patch-x">
			<dofs>sx,sy,sz</dofs>
		</bc>
		<bc name="FixedDisplacement02" type="fix" node_set="patchz">
			<dofs>y</dofs>
		</bc>
	</Boundary>
	<Loads>
		<body_load type="const">
			<x lc="1">0</x>
			<y lc="2">0</y>
			<z lc="3">1</z>
		</body_load>
	</Loads>
	<LoadData>
		<load_controller id="1" type="loadcurve">
			<interpolate>SMOOTH</interpolate>
			<points>
				<point>0,0</point>
				<point>1,1</point>
			</points>
		</load_controller>
		<load_controller id="2" type="loadcurve">
			<interpolate>SMOOTH</interpolate>
			<points>
				<point>0,0</point>
				<point>1,1</point>
			</points>
		</load_controller>
		<load_controller id="3" type="loadcurve">
			<interpolate>LINEAR</interpolate>
			<points>
				<point>0,1</point>
				<point>1,1</point>
			</points>
		</load_controller>
	</LoadData>
	<Output>
		<plotfile type="febio">
			<var type="displacement"/>
			<var type="relative volume"/>
			<var type="shell director"/>
			<var type="shell strain"/>
			<var type="stress"/>
		</plotfile>
		<logfile>
			<node_data data="z" node_set="unnamed_set01"/>
		</logfile>
	</Output>
</febio_spec>
