<?xml version="1.0" encoding="ISO-8859-1"?>
<!--
Rectangular shell strip (quad4) subjected to elongation along X. 
The shell material is an uncoupled solid mixture of a Mooney-Rivlin ground matrix
and two fiber bundles in the plane of the shell, having 3D von Mises
distributions and making angles of ±26.6° with X.
-->
<febio_spec version="3.0">
	<Module type="solid"/>
	<Control>
		<analysis>STATIC</analysis>
		<time_steps>10000</time_steps>
		<step_size>0.0001</step_size>
		<solver>
			<max_refs>25</max_refs>
			<max_ups>0</max_ups>
			<diverge_reform>1</diverge_reform>
			<reform_each_time_step>1</reform_each_time_step>
			<dtol>0.001</dtol>
			<etol>0.01</etol>
			<rtol>0</rtol>
			<lstol>0.9</lstol>
			<min_residual>1e-20</min_residual>
			<qnmethod>BFGS</qnmethod>
			<rhoi>0</rhoi>
		</solver>
		<time_stepper>
			<dtmin>1e-05</dtmin>
			<dtmax>0.01</dtmax>
			<max_retries>5</max_retries>
			<opt_iter>25</opt_iter>
			<aggressiveness>1</aggressiveness>
		</time_stepper>
	</Control>
	<Globals>
		<Constants>
			<T>0</T>
			<R>0</R>
			<Fc>0</Fc>
		</Constants>
	</Globals>
	<Material>
		<material id="1" name="Material2" type="uncoupled solid mixture">
			<density>1</density>
			<k>500</k>
			<solid type="Mooney-Rivlin">
				<c1>0.2</c1>
				<c2>0</c2>
			</solid>
			<solid type="continuous fiber distribution uncoupled">
				<density>1</density>
				<k>0</k>
				<mat_axis type="vector">
					<a>1,0.5,0</a>
					<d>0,0,1</d>
				</mat_axis>
				<fibers type="fiber-exp-pow-uncoupled">
					<alpha>2</alpha>
					<beta>2</beta>
					<ksi>5</ksi>
					<mu>0</mu>
				</fibers>
				<distribution type="von-Mises-3d">
					<b>10</b>
				</distribution>
				<scheme type="fibers-3d-gkt">
					<nph>11</nph>
					<nth>31</nth>
				</scheme>
			</solid>
			<solid type="continuous fiber distribution uncoupled">
				<density>1</density>
				<k>0</k>
				<mat_axis type="vector">
					<a>1,-0.5,0</a>
					<d>0,1,0</d>
				</mat_axis>
				<fibers type="fiber-exp-pow-uncoupled">
					<alpha>2</alpha>
					<beta>2</beta>
					<ksi>5</ksi>
					<mu>0</mu>
				</fibers>
				<distribution type="von-Mises-3d">
					<b>10</b>
				</distribution>
				<scheme type="fibers-3d-gkt">
					<nph>11</nph>
					<nth>31</nth>
				</scheme>
			</solid>
		</material>
	</Material>
	<Mesh>
		<Nodes name="Object1">
			<node id="1">-2,-0.5,0</node>
			<node id="2">2,-0.5,0</node>
			<node id="3">2,0.5,0</node>
			<node id="4">-2,0.5,0</node>
			<node id="5">-1.9,-0.5,0</node>
			<node id="6">-1.8,-0.5,0</node>
			<node id="7">-1.7,-0.5,0</node>
			<node id="8">-1.6,-0.5,0</node>
			<node id="9">-1.5,-0.5,0</node>
			<node id="10">-1.4,-0.5,0</node>
			<node id="11">-1.3,-0.5,0</node>
			<node id="12">-1.2,-0.5,0</node>
			<node id="13">-1.1,-0.5,0</node>
			<node id="14">-1,-0.5,0</node>
			<node id="15">-0.9,-0.5,0</node>
			<node id="16">-0.8,-0.5,0</node>
			<node id="17">-0.7,-0.5,0</node>
			<node id="18">-0.6,-0.5,0</node>
			<node id="19">-0.5,-0.5,0</node>
			<node id="20">-0.4,-0.5,0</node>
<!-- ... 431 like lines cut -->
		</Nodes>
		<Elements type="quad4" name="Part1">
			<elem id="1">     1,     5,   101,   100</elem>
			<elem id="2">     5,     6,   102,   101</elem>
			<elem id="3">     6,     7,   103,   102</elem>
			<elem id="4">     7,     8,   104,   103</elem>
			<elem id="5">     8,     9,   105,   104</elem>
			<elem id="6">     9,    10,   106,   105</elem>
			<elem id="7">    10,    11,   107,   106</elem>
			<elem id="8">    11,    12,   108,   107</elem>
			<elem id="9">    12,    13,   109,   108</elem>
			<elem id="10">    13,    14,   110,   109</elem>
			<elem id="11">    14,    15,   111,   110</elem>
			<elem id="12">    15,    16,   112,   111</elem>
			<elem id="13">    16,    17,   113,   112</elem>
			<elem id="14">    17,    18,   114,   113</elem>
			<elem id="15">    18,    19,   115,   114</elem>
			<elem id="16">    19,    20,   116,   115</elem>
			<elem id="17">    20,    21,   117,   116</elem>
			<elem id="18">    21,    22,   118,   117</elem>
			<elem id="19">    22,    23,   119,   118</elem>
			<elem id="20">    23,    24,   120,   119</elem>
<!-- ... 380 like lines cut -->
		</Elements>
		<NodeSet name="FixedDisplacement1">
			<n id="1"/>
			<n id="4"/>
			<n id="92"/>
			<n id="93"/>
			<n id="94"/>
			<n id="95"/>
			<n id="96"/>
			<n id="97"/>
			<n id="98"/>
			<n id="99"/>
			<n id="100"/>
		</NodeSet>
		<NodeSet name="FixedShellDisplacement1">
			<n id="1"/>
			<n id="4"/>
			<n id="92"/>
			<n id="93"/>
			<n id="94"/>
			<n id="95"/>
			<n id="96"/>
			<n id="97"/>
			<n id="98"/>
			<n id="99"/>
			<n id="100"/>
		</NodeSet>
		<NodeSet name="FixedDisplacement2">
			<n id="2"/>
			<n id="3"/>
			<n id="44"/>
			<n id="45"/>
			<n id="46"/>
			<n id="47"/>
			<n id="48"/>
			<n id="49"/>
			<n id="50"/>
			<n id="51"/>
			<n id="52"/>
		</NodeSet>
		<NodeSet name="FixedShellDisplacement2">
			<n id="2"/>
			<n id="3"/>
			<n id="44"/>
			<n id="45"/>
			<n id="46"/>
			<n id="47"/>
			<n id="48"/>
			<n id="49"/>
			<n id="50"/>
			<n id="51"/>
			<n id="52"/>
		</NodeSet>
		<NodeSet name="PrescribedDisplacement1">
			<n id="2"/>
			<n id="3"/>
			<n id="44"/>
			<n id="45"/>
			<n id="46"/>
			<n id="47"/>
			<n id="48"/>
			<n id="49"/>
			<n id="50"/>
			<n id="51"/>
			<n id="52"/>
		</NodeSet>
		<NodeSet name="PrescribedShellDisplacement1">
			<n id="2"/>
			<n id="3"/>
			<n id="44"/>
			<n id="45"/>
			<n id="46"/>
			<n id="47"/>
			<n id="48"/>
			<n id="49"/>
			<n id="50"/>
			<n id="51"/>
			<n id="52"/>
		</NodeSet>
	</Mesh>
	<MeshDomains>
		<ShellDomain name="Part1" mat="Material2">
			<shell_normal_nodal>1</shell_normal_nodal>
		</ShellDomain>
	</MeshDomains>
	<MeshData>
		<ElementData var="shell thickness" elem_set="Part1">
			<e lid="1">0.01,0.01,0.01,0.01</e>
			<e lid="2">0.01,0.01,0.01,0.01</e>
			<e lid="3">0.01,0.01,0.01,0.01</e>
			<e lid="4">0.01,0.01,0.01,0.01</e>
			<e lid="5">0.01,0.01,0.01,0.01</e>
			<e lid="6">0.01,0.01,0.01,0.01</e>
			<e lid="7">0.01,0.01,0.01,0.01</e>
			<e lid="8">0.01,0.01,0.01,0.01</e>
			<e lid="9">0.01,0.01,0.01,0.01</e>
			<e lid="10">0.01,0.01,0.01,0.01</e>
			<e lid="11">0.01,0.01,0.01,0.01</e>
			<e lid="12">0.01,0.01,0.01,0.01</e>
			<e lid="13">0.01,0.01,0.01,0.01</e>
			<e lid="14">0.01,0.01,0.01,0.01</e>
			<e lid="15">0.01,0.01,0.01,0.01</e>
			<e lid="16">0.01,0.01,0.01,0.01</e>
			<e lid="17">0.01,0.01,0.01,0.01</e>
			<e lid="18">0.01,0.01,0.01,0.01</e>
			<e lid="19">0.01,0.01,0.01,0.01</e>
			<e lid="20">0.01,0.01,0.01,0.01</e>
<!-- ... 380 like lines cut -->
		</ElementData>
	</MeshData>
	<Boundary>
		<bc name="FixedDisplacement1" type="fix" node_set="FixedDisplacement1">
			<dofs>x,y,z</dofs>
		</bc>
		<bc name="FixedShellDisplacement1" type="fix" node_set="FixedShellDisplacement1">
			<dofs>sx,sy,sz</dofs>
		</bc>
		<bc name="FixedDisplacement2" type="fix" node_set="FixedDisplacement2">
			<dofs>y,z</dofs>
		</bc>
		<bc name="FixedShellDisplacement2" type="fix" node_set="FixedShellDisplacement2">
			<dofs>sy,sz</dofs>
		</bc>
		<bc name="PrescribedDisplacement1" type="prescribe" node_set="PrescribedDisplacement1">
			<dof>x</dof>
			<scale lc="1">1</scale>
			<relative>0</relative>
		</bc>
		<bc name="PrescribedShellDisplacement1" type="prescribe" node_set="PrescribedShellDisplacement1">
			<dof>sx</dof>
			<scale lc="2">1</scale>
			<relative>0</relative>
		</bc>
	</Boundary>
	<LoadData>
		<load_controller id="1" type="loadcurve">
			<interpolate>CONTROL POINTS</interpolate>
			<points>
				<point>0,0</point>
				<point>0.5,0</point>
				<point>1,1</point>
			</points>
		</load_controller>
		<load_controller id="2" type="loadcurve">
			<interpolate>CONTROL POINTS</interpolate>
			<points>
				<point>0,0</point>
				<point>0.5,0</point>
				<point>1,1</point>
			</points>
		</load_controller>
	</LoadData>
	<Output>
		<plotfile type="febio">
			<var type="displacement"/>
			<var type="reaction forces"/>
			<var type="shell director"/>
			<var type="shell relative volume"/>
			<var type="shell strain"/>
			<var type="shell thickness"/>
			<var type="stress"/>
		</plotfile>
	</Output>
</febio_spec>
