<?xml version="1.0" encoding="ISO-8859-1"?>
<febio_spec version="3.0">
	<Module type="solid"/>
	<Control>
		<analysis>STATIC</analysis>
		<time_steps>100</time_steps>
		<step_size>0.01</step_size>
		<solver>
			<max_refs>15</max_refs>
			<max_ups>0</max_ups>
			<diverge_reform>1</diverge_reform>
			<reform_each_time_step>1</reform_each_time_step>
			<dtol>0.001</dtol>
			<etol>0.01</etol>
			<rtol>0</rtol>
			<lstol>0.9</lstol>
			<min_residual>1e-20</min_residual>
			<qnmethod>BFGS</qnmethod>
			<rhoi>-2</rhoi>
		</solver>
		<time_stepper>
			<dtmin>0.001</dtmin>
			<dtmax>0.1</dtmax>
			<max_retries>5</max_retries>
			<opt_iter>10</opt_iter>
		</time_stepper>
	</Control>
	<Globals>
		<Constants>
			<T>293</T>
			<R>0.008314</R>
			<Fc>0.0965</Fc>
		</Constants>
	</Globals>
	<Material>
		<material id="1" name="mat1" type="solid mixture">
			<density>1</density>
			<solid type="neo-Hookean">
				<E>1</E>
				<v>0.3</v>
			</solid>
			<solid type="continuous fiber distribution">
				<mat_axis type="vector">
					<a>1,0,0</a>
					<d>0,1,0</d>
				</mat_axis>
				<fibers type="fiber-exp-pow">
					<alpha>20</alpha>
					<beta>2</beta>
					<ksi>5</ksi>
					<mu>0</mu>
				</fibers>
				<distribution type="von-Mises-3d">
					<b>3</b>
				</distribution>
				<scheme type="fibers-3d-gkt">
					<nph>11</nph>
					<nth>31</nth>
				</scheme>
			</solid>
		</material>
		<material id="2" name="mat2" type="rigid body">
			<density>1</density>
		</material>
		<material id="3" name="mat3" type="rigid body">
			<density>1</density>
		</material>
	</Material>
	<Mesh>
		<Nodes name="Object01">
			<node id="1">-5,-1.5,0</node>
			<node id="2">-5,-0.75,0</node>
			<node id="3">-5,0,0</node>
			<node id="4">-5,0.75,0</node>
			<node id="5">-5,1.5,0</node>
			<node id="6">-4,-1.5,0</node>
			<node id="7">-4,-0.75,0</node>
			<node id="8">-4,0,0</node>
			<node id="9">-4,0.75,0</node>
			<node id="10">-4,1.5,0</node>
			<node id="11">-3,-1.5,0</node>
			<node id="12">-3,-0.75,0</node>
			<node id="13">-3,0,0</node>
			<node id="14">-3,0.75,0</node>
			<node id="15">-3,1.5,0</node>
			<node id="16">-2,-1.5,0</node>
			<node id="17">-2,-0.75,0</node>
			<node id="18">-2,0,0</node>
			<node id="19">-2,0.75,0</node>
			<node id="20">-2,1.5,0</node>
<!-- ... 35 like lines cut -->
		</Nodes>
		<Elements type="quad4" name="Part1">
			<elem id="1">     1,     6,     7,     2</elem>
			<elem id="2">     2,     7,     8,     3</elem>
			<elem id="3">     3,     8,     9,     4</elem>
			<elem id="4">     4,     9,    10,     5</elem>
			<elem id="5">     6,    11,    12,     7</elem>
			<elem id="6">     7,    12,    13,     8</elem>
			<elem id="7">     8,    13,    14,     9</elem>
			<elem id="8">     9,    14,    15,    10</elem>
			<elem id="9">    11,    16,    17,    12</elem>
			<elem id="10">    12,    17,    18,    13</elem>
			<elem id="11">    13,    18,    19,    14</elem>
			<elem id="12">    14,    19,    20,    15</elem>
			<elem id="13">    16,    21,    22,    17</elem>
			<elem id="14">    17,    22,    23,    18</elem>
			<elem id="15">    18,    23,    24,    19</elem>
			<elem id="16">    19,    24,    25,    20</elem>
			<elem id="17">    21,    26,    27,    22</elem>
			<elem id="18">    22,    27,    28,    23</elem>
			<elem id="19">    23,    28,    29,    24</elem>
			<elem id="20">    24,    29,    30,    25</elem>
<!-- ... 20 like lines cut -->
		</Elements>
		<NodeSet name="RigidNodeset 1">
			<n id="1"/>
			<n id="2"/>
			<n id="3"/>
			<n id="4"/>
			<n id="5"/>
		</NodeSet>
		<NodeSet name="RigidNodeset 2">
			<n id="51"/>
			<n id="52"/>
			<n id="53"/>
			<n id="54"/>
			<n id="55"/>
		</NodeSet>
		<ElementSet name="unnamed_set01">
			<e id="1"/>
		</ElementSet>
	</Mesh>
	<MeshDomains>
		<ShellDomain name="Part1" mat="mat1"/>
	</MeshDomains>
	<MeshData>
		<ElementData var="shell thickness" elem_set="Part1">
			<e lid="1">0.01,0.01,0.01,0.01</e>
			<e lid="2">0.01,0.01,0.01,0.01</e>
			<e lid="3">0.01,0.01,0.01,0.01</e>
			<e lid="4">0.01,0.01,0.01,0.01</e>
			<e lid="5">0.01,0.01,0.01,0.01</e>
			<e lid="6">0.01,0.01,0.01,0.01</e>
			<e lid="7">0.01,0.01,0.01,0.01</e>
			<e lid="8">0.01,0.01,0.01,0.01</e>
			<e lid="9">0.01,0.01,0.01,0.01</e>
			<e lid="10">0.01,0.01,0.01,0.01</e>
			<e lid="11">0.01,0.01,0.01,0.01</e>
			<e lid="12">0.01,0.01,0.01,0.01</e>
			<e lid="13">0.01,0.01,0.01,0.01</e>
			<e lid="14">0.01,0.01,0.01,0.01</e>
			<e lid="15">0.01,0.01,0.01,0.01</e>
			<e lid="16">0.01,0.01,0.01,0.01</e>
			<e lid="17">0.01,0.01,0.01,0.01</e>
			<e lid="18">0.01,0.01,0.01,0.01</e>
			<e lid="19">0.01,0.01,0.01,0.01</e>
			<e lid="20">0.01,0.01,0.01,0.01</e>
<!-- ... 20 like lines cut -->
		</ElementData>
	</MeshData>
	<Boundary>
		<bc name="RigidInterface02" type="rigid" node_set="RigidNodeset 1">
			<rb>2</rb>
		</bc>
		<bc name="RigidInterface03" type="rigid" node_set="RigidNodeset 2">
			<rb>3</rb>
		</bc>
	</Boundary>
	<Rigid>
		<rigid_constraint name="RigidFixed126" type="fix">
			<rb>2</rb>
			<dofs>Rx,Ry,Rz,Ru,Rv,Rw</dofs>
		</rigid_constraint>
		<rigid_constraint name="RigidDisplacement52" type="prescribe">
			<rb>3</rb>
			<dof>Rx</dof>
			<value lc="1">1</value>
		</rigid_constraint>
		<rigid_constraint name="RigidFixed127" type="fix">
			<rb>3</rb>
			<dofs>Ry,Rz,Ru,Rv,Rw</dofs>
		</rigid_constraint>
	</Rigid>
	<Contact>
	</Contact>
	<LoadData>
		<load_controller id="1" type="loadcurve">
			<interpolate>SMOOTH</interpolate>
			<points>
				<point>0,0</point>
				<point>1,2</point>
			</points>
		</load_controller>
	</LoadData>
	<Output>
		<plotfile type="febio">
			<var type="displacement"/>
			<var type="shell director"/>
			<var type="shell strain"/>
			<var type="stress"/>
		</plotfile>
		<logfile>
			<element_data data="sx" elem_set="unnamed_set01"/>
		</logfile>
	</Output>
</febio_spec>
