<?xml version="1.0" encoding="ISO-8859-1"?>
<!--
Shell(quad8) strip with continuous fiber distribution of 3D von-Mises distribution where distribution is 
heavily along x direction.
Left edge with rigid constaint is fixed and right edge with rigid constraint is 
prescribed x displacement of 2 at t=1.
-->
<febio_spec version="3.0">
	<Module type="solid"/>
	<Control>
		<analysis>STATIC</analysis>
		<time_steps>100</time_steps>
		<step_size>0.01</step_size>
		<solver>
			<max_refs>15</max_refs>
			<max_ups>0</max_ups>
			<diverge_reform>1</diverge_reform>
			<reform_each_time_step>1</reform_each_time_step>
			<dtol>0.001</dtol>
			<etol>0.01</etol>
			<rtol>0</rtol>
			<lstol>0.9</lstol>
			<min_residual>1e-20</min_residual>
			<qnmethod>BFGS</qnmethod>
			<rhoi>-2</rhoi>
		</solver>
		<time_stepper>
			<dtmin>0.001</dtmin>
			<dtmax>0.1</dtmax>
			<max_retries>5</max_retries>
			<opt_iter>10</opt_iter>
			<aggressiveness>1</aggressiveness>
		</time_stepper>
	</Control>
	<Globals>
		<Constants>
			<T>293</T>
			<R>0.008314</R>
			<Fc>0.0965</Fc>
		</Constants>
	</Globals>
	<Material>
		<material id="1" name="mat1" type="solid mixture">
			<density>1</density>
			<mat_axis type="vector">
				<a>1,0,0</a>
				<d>0,1,0</d>
			</mat_axis>
			<solid type="neo-Hookean">
				<E>1</E>
				<v>0.3</v>
			</solid>
			<solid type="continuous fiber distribution">
				<fibers type="fiber-exp-pow">
					<alpha>20</alpha>
					<beta>2</beta>
					<ksi>5</ksi>
				</fibers>
				<distribution type="von-Mises-3d">
					<b>3</b>
				</distribution>
				<scheme type="fibers-3d-gkt">
					<nph>11</nph>
					<nth>31</nth>
				</scheme>
			</solid>
		</material>
		<material id="2" name="shell1" type="rigid body">
			<density>1</density>
		</material>
		<material id="3" name="shell2" type="rigid body">
			<density>1</density>
		</material>
	</Material>
	<Mesh>
		<Nodes name="Object01">
			<node id="1">-5,-1.5,0</node>
			<node id="2">-5,-0.75,0</node>
			<node id="3">-5,0,0</node>
			<node id="4">-5,0.75,0</node>
			<node id="5">-5,1.5,0</node>
			<node id="6">-4,-1.5,0</node>
			<node id="7">-4,-0.75,0</node>
			<node id="8">-4,0,0</node>
			<node id="9">-4,0.75,0</node>
			<node id="10">-4,1.5,0</node>
			<node id="11">-3,-1.5,0</node>
			<node id="12">-3,-0.75,0</node>
			<node id="13">-3,0,0</node>
			<node id="14">-3,0.75,0</node>
			<node id="15">-3,1.5,0</node>
			<node id="16">-2,-1.5,0</node>
			<node id="17">-2,-0.75,0</node>
			<node id="18">-2,0,0</node>
			<node id="19">-2,0.75,0</node>
			<node id="20">-2,1.5,0</node>
<!-- ... 129 like lines cut -->
		</Nodes>
		<Elements type="quad8" name="Part3">
			<elem id="1">     1,     6,     7,     2,    56,    65,    58,    57</elem>
			<elem id="2">     2,     7,     8,     3,    58,    67,    60,    59</elem>
			<elem id="3">     3,     8,     9,     4,    60,    69,    62,    61</elem>
			<elem id="4">     4,     9,    10,     5,    62,    71,    64,    63</elem>
			<elem id="5">     6,    11,    12,     7,    66,    74,    68,    65</elem>
			<elem id="6">     7,    12,    13,     8,    68,    76,    70,    67</elem>
			<elem id="7">     8,    13,    14,     9,    70,    78,    72,    69</elem>
			<elem id="8">     9,    14,    15,    10,    72,    80,    73,    71</elem>
			<elem id="9">    11,    16,    17,    12,    75,    83,    77,    74</elem>
			<elem id="10">    12,    17,    18,    13,    77,    85,    79,    76</elem>
			<elem id="11">    13,    18,    19,    14,    79,    87,    81,    78</elem>
			<elem id="12">    14,    19,    20,    15,    81,    89,    82,    80</elem>
			<elem id="13">    16,    21,    22,    17,    84,    92,    86,    83</elem>
			<elem id="14">    17,    22,    23,    18,    86,    94,    88,    85</elem>
			<elem id="15">    18,    23,    24,    19,    88,    96,    90,    87</elem>
			<elem id="16">    19,    24,    25,    20,    90,    98,    91,    89</elem>
			<elem id="17">    21,    26,    27,    22,    93,   101,    95,    92</elem>
			<elem id="18">    22,    27,    28,    23,    95,   103,    97,    94</elem>
			<elem id="19">    23,    28,    29,    24,    97,   105,    99,    96</elem>
			<elem id="20">    24,    29,    30,    25,    99,   107,   100,    98</elem>
<!-- ... 20 like lines cut -->
		</Elements>
		<NodeSet name="RigidNodeset 1">
			<n id="1"/>
			<n id="2"/>
			<n id="3"/>
			<n id="4"/>
			<n id="5"/>
			<n id="57"/>
			<n id="59"/>
			<n id="61"/>
			<n id="63"/>
		</NodeSet>
		<NodeSet name="RigidNodeset 2">
			<n id="51"/>
			<n id="52"/>
			<n id="53"/>
			<n id="54"/>
			<n id="55"/>
			<n id="146"/>
			<n id="147"/>
			<n id="148"/>
			<n id="149"/>
		</NodeSet>
		<ElementSet name="unnamed_set01">
			<e id="18"/>
		</ElementSet>
	</Mesh>
	<MeshDomains>
		<ShellDomain name="Part3" mat="mat1"/>
	</MeshDomains>
	<MeshData>
		<ElementData var="shell thickness" elem_set="Part3">
			<e lid="1">0.01,0.01,0.01,0.01,0.01,0.01,0.01,0.01</e>
			<e lid="2">0.01,0.01,0.01,0.01,0.01,0.01,0.01,0.01</e>
			<e lid="3">0.01,0.01,0.01,0.01,0.01,0.01,0.01,0.01</e>
			<e lid="4">0.01,0.01,0.01,0.01,0.01,0.01,0.01,0.01</e>
			<e lid="5">0.01,0.01,0.01,0.01,0.01,0.01,0.01,0.01</e>
			<e lid="6">0.01,0.01,0.01,0.01,0.01,0.01,0.01,0.01</e>
			<e lid="7">0.01,0.01,0.01,0.01,0.01,0.01,0.01,0.01</e>
			<e lid="8">0.01,0.01,0.01,0.01,0.01,0.01,0.01,0.01</e>
			<e lid="9">0.01,0.01,0.01,0.01,0.01,0.01,0.01,0.01</e>
			<e lid="10">0.01,0.01,0.01,0.01,0.01,0.01,0.01,0.01</e>
			<e lid="11">0.01,0.01,0.01,0.01,0.01,0.01,0.01,0.01</e>
			<e lid="12">0.01,0.01,0.01,0.01,0.01,0.01,0.01,0.01</e>
			<e lid="13">0.01,0.01,0.01,0.01,0.01,0.01,0.01,0.01</e>
			<e lid="14">0.01,0.01,0.01,0.01,0.01,0.01,0.01,0.01</e>
			<e lid="15">0.01,0.01,0.01,0.01,0.01,0.01,0.01,0.01</e>
			<e lid="16">0.01,0.01,0.01,0.01,0.01,0.01,0.01,0.01</e>
			<e lid="17">0.01,0.01,0.01,0.01,0.01,0.01,0.01,0.01</e>
			<e lid="18">0.01,0.01,0.01,0.01,0.01,0.01,0.01,0.01</e>
			<e lid="19">0.01,0.01,0.01,0.01,0.01,0.01,0.01,0.01</e>
			<e lid="20">0.01,0.01,0.01,0.01,0.01,0.01,0.01,0.01</e>
<!-- ... 20 like lines cut -->
		</ElementData>
	</MeshData>
	<Boundary>
		<bc name="RigidInterface02" type="rigid" node_set="RigidNodeset 1">
			<rb>2</rb>
		</bc>
		<bc name="RigidInterface03" type="rigid" node_set="RigidNodeset 2">
			<rb>3</rb>
		</bc>
	</Boundary>
	<Rigid>
		<rigid_constraint name="RigidFixed128" type="fix">
			<rb>2</rb>
			<dofs>Rx,Ry,Rz,Ru,Rv,Rw</dofs>
		</rigid_constraint>
		<rigid_constraint name="RigidDisplacement53" type="prescribe">
			<rb>3</rb>
			<dof>Rx</dof>
			<value lc="1">1</value>
		</rigid_constraint>
		<rigid_constraint name="RigidFixed129" type="fix">
			<rb>3</rb>
			<dofs>Ry,Rz,Ru,Rv,Rw</dofs>
		</rigid_constraint>
	</Rigid>
	<Contact>
	</Contact>
	<LoadData>
		<load_controller id="1" type="loadcurve">
			<interpolate>LINEAR</interpolate>
			<points>
				<point>0,0</point>
				<point>1,2</point>
			</points>
		</load_controller>
	</LoadData>
	<Output>
		<plotfile type="febio">
			<var type="displacement"/>
			<var type="relative volume"/>
			<var type="shell director"/>
			<var type="shell strain"/>
			<var type="stress"/>
		</plotfile>
		<logfile>
			<element_data data="sx" elem_set="unnamed_set01"/>
		</logfile>
	</Output>
</febio_spec>
