<?xml version="1.0" encoding="ISO-8859-1"?>
<!--
Cantilever shell attached with rigid box is applied torque along y direction.
Torque on rigd body is prescribed along y of 1e-5 at t=1.
Front and back face of left edge of shell is fixed.
-->
<febio_spec version="3.0">
	<Module type="solid"/>
	<Control>
		<analysis>STATIC</analysis>
		<time_steps>10</time_steps>
		<step_size>0.1</step_size>
		<solver>
			<max_refs>15</max_refs>
			<max_ups>0</max_ups>
			<diverge_reform>1</diverge_reform>
			<reform_each_time_step>1</reform_each_time_step>
			<dtol>0.001</dtol>
			<etol>0.01</etol>
			<rtol>0</rtol>
			<lstol>0.9</lstol>
			<min_residual>1e-20</min_residual>
			<qnmethod>BFGS</qnmethod>
			<rhoi>-2</rhoi>
		</solver>
		<time_stepper>
			<dtmin>0.01</dtmin>
			<dtmax>0.1</dtmax>
			<max_retries>5</max_retries>
			<opt_iter>10</opt_iter>
		</time_stepper>
	</Control>
	<Globals>
		<Constants>
			<T>293</T>
			<R>0.008314</R>
			<Fc>0.0965</Fc>
		</Constants>
	</Globals>
	<Material>
		<material id="1" name="shell2" type="neo-Hookean">
			<density>1</density>
			<E>1</E>
			<v>0.3</v>
		</material>
		<material id="2" name="shell1" type="rigid body">
			<density>1</density>
			<center_of_mass>20,0,0</center_of_mass>
		</material>
	</Material>
	<Mesh>
		<Nodes name="Object01">
			<node id="1">-10,-1,0</node>
			<node id="2">-10,0,0</node>
			<node id="3">-10,1,0</node>
			<node id="4">-9,-1,0</node>
			<node id="5">-9,0,0</node>
			<node id="6">-9,1,0</node>
			<node id="7">-8,-1,0</node>
			<node id="8">-8,0,0</node>
			<node id="9">-8,1,0</node>
			<node id="10">-7,-1,0</node>
			<node id="11">-7,0,0</node>
			<node id="12">-7,1,0</node>
			<node id="13">-6,-1,0</node>
			<node id="14">-6,0,0</node>
			<node id="15">-6,1,0</node>
			<node id="16">-5,-1,0</node>
			<node id="17">-5,0,0</node>
			<node id="18">-5,1,0</node>
			<node id="19">-4,-1,0</node>
			<node id="20">-4,0,0</node>
<!-- ... 51 like lines cut -->
		</Nodes>
		<Elements type="quad4" name="Part3">
			<elem id="1">1,4,5,2</elem>
			<elem id="2">2,5,6,3</elem>
			<elem id="3">4,7,8,5</elem>
			<elem id="4">5,8,9,6</elem>
			<elem id="5">7,10,11,8</elem>
			<elem id="6">8,11,12,9</elem>
			<elem id="7">10,13,14,11</elem>
			<elem id="8">11,14,15,12</elem>
			<elem id="9">13,16,17,14</elem>
			<elem id="10">14,17,18,15</elem>
			<elem id="11">16,19,20,17</elem>
			<elem id="12">17,20,21,18</elem>
			<elem id="13">19,22,23,20</elem>
			<elem id="14">20,23,24,21</elem>
			<elem id="15">22,25,26,23</elem>
			<elem id="16">23,26,27,24</elem>
			<elem id="17">25,28,29,26</elem>
			<elem id="18">26,29,30,27</elem>
			<elem id="19">28,31,32,29</elem>
			<elem id="20">29,32,33,30</elem>
<!-- ... 20 like lines cut -->
		</Elements>
		<Elements type="hex8" name="Part3(2)">
			<elem id="41">64,68,70,66,65,69,71,67</elem>
		</Elements>
		<NodeSet name="patch-x">
			<n id="1"/>
			<n id="2"/>
			<n id="3"/>
		</NodeSet>
		<NodeSet name="patch-x">
			<n id="1"/>
			<n id="2"/>
			<n id="3"/>
		</NodeSet>
		<NodeSet name="patchz">
			<n id="1"/>
			<n id="2"/>
			<n id="3"/>
			<n id="4"/>
			<n id="5"/>
			<n id="6"/>
			<n id="7"/>
			<n id="8"/>
			<n id="9"/>
			<n id="10"/>
			<n id="11"/>
			<n id="12"/>
			<n id="13"/>
			<n id="14"/>
			<n id="15"/>
			<n id="16"/>
			<n id="17"/>
			<n id="18"/>
			<n id="19"/>
			<n id="20"/>
<!-- ... 43 like lines cut -->
		</NodeSet>
		<NodeSet name="RigidNodeset 1">
			<n id="61"/>
			<n id="62"/>
			<n id="63"/>
		</NodeSet>
		<NodeSet name="unnamed_set01">
			<n id="4"/>
		</NodeSet>
		<NodeSet name="unnamed_set01">
			<n id="4"/>
		</NodeSet>
	</Mesh>
	<MeshDomains>
		<ShellDomain name="Part3" mat="shell2"/>
		<SolidDomain name="Part3(2)" mat="shell1"/>
	</MeshDomains>
	<MeshData>
		<ElementData var="shell thickness" elem_set="Part3">
			<e lid="1">0.01,0.01,0.01,0.01</e>
			<e lid="2">0.01,0.01,0.01,0.01</e>
			<e lid="3">0.01,0.01,0.01,0.01</e>
			<e lid="4">0.01,0.01,0.01,0.01</e>
			<e lid="5">0.01,0.01,0.01,0.01</e>
			<e lid="6">0.01,0.01,0.01,0.01</e>
			<e lid="7">0.01,0.01,0.01,0.01</e>
			<e lid="8">0.01,0.01,0.01,0.01</e>
			<e lid="9">0.01,0.01,0.01,0.01</e>
			<e lid="10">0.01,0.01,0.01,0.01</e>
			<e lid="11">0.01,0.01,0.01,0.01</e>
			<e lid="12">0.01,0.01,0.01,0.01</e>
			<e lid="13">0.01,0.01,0.01,0.01</e>
			<e lid="14">0.01,0.01,0.01,0.01</e>
			<e lid="15">0.01,0.01,0.01,0.01</e>
			<e lid="16">0.01,0.01,0.01,0.01</e>
			<e lid="17">0.01,0.01,0.01,0.01</e>
			<e lid="18">0.01,0.01,0.01,0.01</e>
			<e lid="19">0.01,0.01,0.01,0.01</e>
			<e lid="20">0.01,0.01,0.01,0.01</e>
<!-- ... 20 like lines cut -->
		</ElementData>
	</MeshData>
	<Boundary>
		<bc name="FixedDisplacement01" type="fix" node_set="patch-x">
			<dofs>x,y,z</dofs>
		</bc>
		<bc name="FixedShellDisplacement01" type="fix" node_set="patch-x">
			<dofs>sx,sy,sz</dofs>
		</bc>
		<bc name="FixedDisplacement02" type="fix" node_set="patchz">
			<dofs>y</dofs>
		</bc>
		<bc name="RigidInterface02" type="rigid" node_set="RigidNodeset 1">
			<rb>2</rb>
		</bc>
	</Boundary>
	<Rigid>
		<rigid_constraint name="RigidForce07" type="force">
			<rb>2</rb>
			<dof>Rv</dof>
			<value lc="1">1e-05</value>
		</rigid_constraint>
		<rigid_constraint name="RigidFixed130" type="fix">
			<rb>2</rb>
			<dofs>Ry,Ru,Rw</dofs>
		</rigid_constraint>
	</Rigid>
	<Contact>
	</Contact>
	<LoadData>
		<load_controller id="1" type="loadcurve">
			<interpolate>LINEAR</interpolate>
			<points>
				<point>0,0</point>
				<point>1,1</point>
			</points>
		</load_controller>
	</LoadData>
	<Output>
		<plotfile type="febio">
			<var type="displacement"/>
			<var type="relative volume"/>
			<var type="shell director"/>
			<var type="shell strain"/>
			<var type="stress"/>
		</plotfile>
		<logfile>
			<node_data data="z" node_set="unnamed_set01"/>
		</logfile>
	</Output>
</febio_spec>
