<?xml version="1.0" encoding="ISO-8859-1"?>
<!--
Confined compression stress-relaxation of triphasic material whose solid matrix
consists of a neo-Hookean material.  A two-step analysis is performed, where the
first step (from 0 to 1 s) is a steady-state analysis needed to produce equilibrium
free swelling by raising the fixed charged density from zero to the final desired value.
The second step (from 1 to 2001 s) is a transient analysis where the compressive 
displacement prescribed on the top surface is relative to the free-swelling state.
-->
<febio_spec version="3.0">
	<Module type="solute"/>
	<Globals>
		<Constants>
			<T>293</T>
			<R>8.314e-06</R>
			<Fc>9.6845e-05</Fc>
		</Constants>
		<Solutes>
			<solute id="1" name="Na">
				<charge_number>1</charge_number>
				<molar_mass>1</molar_mass>
				<density>1</density>
			</solute>
			<solute id="2" name="Cl">
				<charge_number>-1</charge_number>
				<molar_mass>1</molar_mass>
				<density>1</density>
			</solute>
		</Solutes>
	</Globals>
	<Material>
		<material id="1" name="Triphasic" type="triphasic">
			<phi0>0.2</phi0>
			<fixed_charge_density lc="3">1</fixed_charge_density>
			<solid type="neo-Hookean">
				<density>1</density>
				<E>0.3</E>
				<v>0</v>
			</solid>
			<permeability type="perm-const-iso">
				<perm>0.000914</perm>
			</permeability>
			<osmotic_coefficient type="osm-coef-const">
				<osmcoef>1</osmcoef>
			</osmotic_coefficient>
			<solute sol="1">
				<diffusivity type="diff-const-iso">
					<free_diff>0.0005</free_diff>
					<diff>0.0005</diff>
				</diffusivity>
				<solubility type="solub-const">
					<solub>1</solub>
				</solubility>
			</solute>
			<solute sol="2">
				<diffusivity type="diff-const-iso">
					<free_diff>0.0008</free_diff>
					<diff>0.0008</diff>
				</diffusivity>
				<solubility type="solub-const">
					<solub>1</solub>
				</solubility>
			</solute>
		</material>
	</Material>
	<Mesh>
		<Nodes name="Object01">
			<node id="1">-0.5,-0.5,0</node>
			<node id="2">-0.5,-0.5,0.0026782653</node>
			<node id="3">-0.5,-0.5,0.0058921838</node>
			<node id="4">-0.5,-0.5,0.0097488859</node>
			<node id="5">-0.5,-0.5,0.014376928</node>
			<node id="6">-0.5,-0.5,0.019930579</node>
			<node id="7">-0.5,-0.5,0.026594961</node>
			<node id="8">-0.5,-0.5,0.034592218</node>
			<node id="9">-0.5,-0.5,0.044188927</node>
			<node id="10">-0.5,-0.5,0.055704978</node>
			<node id="11">-0.5,-0.5,0.069524239</node>
			<node id="12">-0.5,-0.5,0.086107352</node>
			<node id="13">-0.5,-0.5,0.10600709</node>
			<node id="14">-0.5,-0.5,0.12988677</node>
			<node id="15">-0.5,-0.5,0.15854239</node>
			<node id="16">-0.5,-0.5,0.19292913</node>
			<node id="17">-0.5,-0.5,0.23419323</node>
			<node id="18">-0.5,-0.5,0.28371014</node>
			<node id="19">-0.5,-0.5,0.34313043</node>
			<node id="20">-0.5,-0.5,0.41443478</node>
<!-- ... 144 like lines cut -->
		</Nodes>
		<Elements type="hex8" name="Part8">
			<elem id="1">1,83,124,42,2,84,125,43</elem>
			<elem id="2">2,84,125,43,3,85,126,44</elem>
			<elem id="3">3,85,126,44,4,86,127,45</elem>
			<elem id="4">4,86,127,45,5,87,128,46</elem>
			<elem id="5">5,87,128,46,6,88,129,47</elem>
			<elem id="6">6,88,129,47,7,89,130,48</elem>
			<elem id="7">7,89,130,48,8,90,131,49</elem>
			<elem id="8">8,90,131,49,9,91,132,50</elem>
			<elem id="9">9,91,132,50,10,92,133,51</elem>
			<elem id="10">10,92,133,51,11,93,134,52</elem>
			<elem id="11">11,93,134,52,12,94,135,53</elem>
			<elem id="12">12,94,135,53,13,95,136,54</elem>
			<elem id="13">13,95,136,54,14,96,137,55</elem>
			<elem id="14">14,96,137,55,15,97,138,56</elem>
			<elem id="15">15,97,138,56,16,98,139,57</elem>
			<elem id="16">16,98,139,57,17,99,140,58</elem>
			<elem id="17">17,99,140,58,18,100,141,59</elem>
			<elem id="18">18,100,141,59,19,101,142,60</elem>
			<elem id="19">19,101,142,60,20,102,143,61</elem>
			<elem id="20">20,102,143,61,21,103,144,62</elem>
<!-- ... 20 like lines cut -->
		</Elements>
		<NodeSet name="FixedDisplacement01">
			<n id="1"/>
			<n id="2"/>
			<n id="3"/>
			<n id="4"/>
			<n id="5"/>
			<n id="6"/>
			<n id="7"/>
			<n id="8"/>
			<n id="9"/>
			<n id="10"/>
			<n id="11"/>
			<n id="12"/>
			<n id="13"/>
			<n id="14"/>
			<n id="15"/>
			<n id="16"/>
			<n id="17"/>
			<n id="18"/>
			<n id="19"/>
			<n id="20"/>
<!-- ... 144 like lines cut -->
		</NodeSet>
		<NodeSet name="FixedDisplacement02">
			<n id="1"/>
			<n id="2"/>
			<n id="3"/>
			<n id="4"/>
			<n id="5"/>
			<n id="6"/>
			<n id="7"/>
			<n id="8"/>
			<n id="9"/>
			<n id="10"/>
			<n id="11"/>
			<n id="12"/>
			<n id="13"/>
			<n id="14"/>
			<n id="15"/>
			<n id="16"/>
			<n id="17"/>
			<n id="18"/>
			<n id="19"/>
			<n id="20"/>
<!-- ... 144 like lines cut -->
		</NodeSet>
		<NodeSet name="FixedDisplacement03">
			<n id="1"/>
			<n id="42"/>
			<n id="83"/>
			<n id="124"/>
		</NodeSet>
		<NodeSet name="PrescribedBC226">
			<n id="41"/>
			<n id="82"/>
			<n id="123"/>
			<n id="164"/>
		</NodeSet>
		<NodeSet name="PrescribedBC227">
			<n id="41"/>
			<n id="82"/>
			<n id="123"/>
			<n id="164"/>
		</NodeSet>
		<NodeSet name="PrescribedBC228">
			<n id="41"/>
			<n id="82"/>
			<n id="123"/>
			<n id="164"/>
		</NodeSet>
		<NodeSet name="InitialConcentration01">
			<n id="1"/>
			<n id="2"/>
			<n id="3"/>
			<n id="4"/>
			<n id="5"/>
			<n id="6"/>
			<n id="7"/>
			<n id="8"/>
			<n id="9"/>
			<n id="10"/>
			<n id="11"/>
			<n id="12"/>
			<n id="13"/>
			<n id="14"/>
			<n id="15"/>
			<n id="16"/>
			<n id="17"/>
			<n id="18"/>
			<n id="19"/>
			<n id="20"/>
<!-- ... 144 like lines cut -->
		</NodeSet>
		<NodeSet name="InitialFluidPressure01">
			<n id="1"/>
			<n id="2"/>
			<n id="3"/>
			<n id="4"/>
			<n id="5"/>
			<n id="6"/>
			<n id="7"/>
			<n id="8"/>
			<n id="9"/>
			<n id="10"/>
			<n id="11"/>
			<n id="12"/>
			<n id="13"/>
			<n id="14"/>
			<n id="15"/>
			<n id="16"/>
			<n id="17"/>
			<n id="18"/>
			<n id="19"/>
			<n id="20"/>
<!-- ... 144 like lines cut -->
		</NodeSet>
		<NodeSet name="PrescribedBC229">
			<n id="41"/>
			<n id="82"/>
			<n id="123"/>
			<n id="164"/>
		</NodeSet>
		<ElementSet name="unnamed_set01">
			<e id="40"/>
		</ElementSet>
	</Mesh>
	<MeshDomains>
		<SolidDomain name="Part8" mat="Triphasic"/>
	</MeshDomains>
	<Boundary>
		<bc name="FixedDisplacement01" type="fix" node_set="FixedDisplacement01">
			<dofs>x</dofs>
		</bc>
		<bc name="FixedDisplacement02" type="fix" node_set="FixedDisplacement02">
			<dofs>y</dofs>
		</bc>
		<bc name="FixedDisplacement03" type="fix" node_set="FixedDisplacement03">
			<dofs>z</dofs>
		</bc>
		<bc name="PrescribedBC226" type="prescribe" node_set="PrescribedBC226">
			<dof>p</dof>
			<scale lc="4">1</scale>
			<relative>0</relative>
		</bc>
		<bc name="PrescribedBC227" type="prescribe" node_set="PrescribedBC227">
			<dof>c1</dof>
			<scale lc="5">1</scale>
			<relative>0</relative>
		</bc>
		<bc name="PrescribedBC228" type="prescribe" node_set="PrescribedBC228">
			<dof>c2</dof>
			<scale lc="6">1</scale>
			<relative>0</relative>
		</bc>
	</Boundary>
	<Initial>
		<ic type="init_dof" node_set="InitialConcentration01">
			<dof>c1</dof>
			<value>150</value>
		</ic>
		<ic type="init_dof" node_set="InitialConcentration01">
			<dof>c2</dof>
			<value>150</value>
		</ic>
		<ic type="init_dof" node_set="InitialFluidPressure01">
			<dof>p</dof>
			<value>-0.73084</value>
		</ic>
	</Initial>
	<Step>
		<step id="1" name="Step01">
			<Control>
				<analysis>STEADY-STATE</analysis>
				<time_steps>10</time_steps>
				<step_size>0.1</step_size>
				<solver>
					<max_refs>15</max_refs>
					<max_ups>0</max_ups>
					<diverge_reform>1</diverge_reform>
					<reform_each_time_step>1</reform_each_time_step>
					<dtol>0.001</dtol>
					<etol>0.01</etol>
					<rtol>0</rtol>
					<ptol>0.01</ptol>
					<ctol>0.01</ctol>
					<lstol>0.9</lstol>
					<min_residual>1e-20</min_residual>
					<qnmethod>BROYDEN</qnmethod>
					<symmetric_stiffness>0</symmetric_stiffness>
				</solver>
				<time_stepper>
					<dtmin>0.01</dtmin>
					<dtmax lc="1"></dtmax>
					<max_retries>5</max_retries>
					<opt_iter>10</opt_iter>
				</time_stepper>
			</Control>
		</step>
		<step id="2" name="Step02">
			<Control>
				<analysis>TRANSIENT</analysis>
				<time_steps>20000</time_steps>
				<step_size>0.1</step_size>
				<solver>
					<max_refs>15</max_refs>
					<max_ups>0</max_ups>
					<diverge_reform>1</diverge_reform>
					<reform_each_time_step>1</reform_each_time_step>
					<dtol>0.001</dtol>
					<etol>0.01</etol>
					<rtol>0</rtol>
					<ptol>0.01</ptol>
					<ctol>0.01</ctol>
					<lstol>0.9</lstol>
					<min_residual>1e-20</min_residual>
					<qnmethod>BROYDEN</qnmethod>
					<symmetric_stiffness>0</symmetric_stiffness>
				</solver>
				<time_stepper>
					<dtmin>0.01</dtmin>
					<dtmax lc="2"></dtmax>
					<max_retries>5</max_retries>
					<opt_iter>10</opt_iter>
				</time_stepper>
			</Control>
			<Boundary>
				<bc name="PrescribedBC229" type="prescribe" node_set="PrescribedBC229">
					<dof>z</dof>
					<scale lc="7">1</scale>
					<relative>1</relative>
				</bc>
			</Boundary>
		</step>
	</Step>
	<LoadData>
		<load_controller id="1" type="loadcurve">
			<interpolate>STEP</interpolate>
			<points>
				<point>0,0</point>
				<point>1,1</point>
			</points>
		</load_controller>
		<load_controller id="2" type="loadcurve">
			<interpolate>STEP</interpolate>
			<points>
				<point>1,20</point>
				<point>101,20</point>
				<point>201,20</point>
				<point>241,20</point>
				<point>2001,20</point>
			</points>
		</load_controller>
		<load_controller id="3" type="loadcurve">
			<interpolate>LINEAR</interpolate>
			<points>
				<point>0,0</point>
				<point>1,-200</point>
			</points>
		</load_controller>
		<load_controller id="4" type="loadcurve">
			<interpolate>STEP</interpolate>
			<points>
				<point>0,0</point>
				<point>1,-0.73084</point>
			</points>
		</load_controller>
		<load_controller id="5" type="loadcurve">
			<interpolate>STEP</interpolate>
			<points>
				<point>0,0</point>
				<point>1,150</point>
			</points>
		</load_controller>
		<load_controller id="6" type="loadcurve">
			<interpolate>STEP</interpolate>
			<points>
				<point>0,0</point>
				<point>1,150</point>
			</points>
		</load_controller>
		<load_controller id="7" type="loadcurve">
			<interpolate>LINEAR</interpolate>
			<points>
				<point>0,0</point>
				<point>1,0</point>
				<point>201,-0.1</point>
			</points>
		</load_controller>
	</LoadData>
	<Output>
		<plotfile type="febio">
			<var type="current density"/>
			<var type="displacement"/>
			<var type="stress"/>
			<var type="effective fluid pressure"/>
			<var type="fluid pressure"/>
			<var type="fluid flux"/>
			<var type="effective solute concentration"/>
			<var type="electric potential"/>
			<var type="fixed charge density"/>
			<var type="solute concentration"/>
			<var type="solute flux"/>
		</plotfile>
		<logfile>
			<element_data data="c1" elem_set="unnamed_set01"/>
		</logfile>
	</Output>
</febio_spec>
