<?xml version="1.0" encoding="ISO-8859-1"?>
<febio_spec version="3.0">
	<Module type="solute"/>
	<Control>
		<analysis>TRANSIENT</analysis>
		<time_steps>10000</time_steps>
		<step_size>1</step_size>
		<solver>
			<max_refs>15</max_refs>
			<max_ups>0</max_ups>
			<diverge_reform>1</diverge_reform>
			<reform_each_time_step>1</reform_each_time_step>
			<dtol>0.001</dtol>
			<etol>0.01</etol>
			<rtol>0</rtol>
			<ptol>0.01</ptol>
			<ctol>0.01</ctol>
			<lstol>0.9</lstol>
			<min_residual>1e-20</min_residual>
			<qnmethod>BROYDEN</qnmethod>
			<symmetric_stiffness>0</symmetric_stiffness>
		</solver>
		<time_stepper>
			<dtmin>0.01</dtmin>
			<dtmax lc="1"></dtmax>
			<max_retries>5</max_retries>
			<opt_iter>10</opt_iter>
		</time_stepper>
	</Control>
	<Globals>
		<Constants>
			<T>293</T>
			<R>8.314e-06</R>
			<Fc>9.65e-05</Fc>
		</Constants>
		<Solutes>
			<solute id="1" name="neutral">
				<charge_number>0</charge_number>
				<molar_mass>1</molar_mass>
				<density>1</density>
			</solute>
			<solute id="2" name="Na+">
				<charge_number>1</charge_number>
				<molar_mass>1</molar_mass>
				<density>1</density>
			</solute>
			<solute id="3" name="Cl-">
				<charge_number>-1</charge_number>
				<molar_mass>1</molar_mass>
				<density>1</density>
			</solute>
		</Solutes>
	</Globals>
	<Material>
		<material id="1" name="Triphasic" type="triphasic">
			<phi0>0.2</phi0>
			<fixed_charge_density>-200</fixed_charge_density>
			<solid type="neo-Hookean">
				<density>1</density>
				<E>1</E>
				<v>0</v>
			</solid>
			<permeability type="perm-const-iso">
				<perm>0.001</perm>
			</permeability>
			<osmotic_coefficient type="osm-coef-const">
				<osmcoef>1</osmcoef>
			</osmotic_coefficient>
			<solute sol="2">
				<diffusivity type="diff-const-iso">
					<free_diff>0.001</free_diff>
					<diff>0.0005</diff>
				</diffusivity>
				<solubility type="solub-const">
					<solub>1</solub>
				</solubility>
			</solute>
			<solute sol="3">
				<diffusivity type="diff-const-iso">
					<free_diff>0.0016</free_diff>
					<diff>0.0008</diff>
				</diffusivity>
				<solubility type="solub-const">
					<solub>1</solub>
				</solubility>
			</solute>
		</material>
		<material id="2" name="Biphasic-Solute" type="biphasic-solute">
			<phi0>0.2</phi0>
			<solid type="neo-Hookean">
				<density>1</density>
				<E>1</E>
				<v>0</v>
			</solid>
			<permeability type="perm-const-iso">
				<perm>0.001</perm>
			</permeability>
			<osmotic_coefficient type="osm-coef-const">
				<osmcoef>1</osmcoef>
			</osmotic_coefficient>
			<solute sol="1">
				<diffusivity type="diff-const-iso">
					<free_diff>0.001</free_diff>
					<diff>0.0005</diff>
				</diffusivity>
				<solubility type="solub-const">
					<solub>1</solub>
				</solubility>
			</solute>
		</material>
	</Material>
	<Mesh>
		<Nodes name="Object01">
			<node id="1">-0.5,-0.5,0</node>
			<node id="2">-0.5,-0.5,0.01173172</node>
			<node id="3">-0.5,-0.5,0.026982956</node>
			<node id="4">-0.5,-0.5,0.046809562</node>
			<node id="5">-0.5,-0.5,0.07258415</node>
			<node id="6">-0.5,-0.5,0.10609112</node>
			<node id="7">-0.5,-0.5,0.14965017</node>
			<node id="8">-0.5,-0.5,0.20627694</node>
			<node id="9">-0.5,-0.5,0.27989174</node>
			<node id="10">-0.5,-0.5,0.37559098</node>
			<node id="11">-0.5,-0.5,0.5</node>
			<node id="12">-0.5,-0.5,0.62440902</node>
			<node id="13">-0.5,-0.5,0.72010826</node>
			<node id="14">-0.5,-0.5,0.79372306</node>
			<node id="15">-0.5,-0.5,0.85034983</node>
			<node id="16">-0.5,-0.5,0.89390888</node>
			<node id="17">-0.5,-0.5,0.92741585</node>
			<node id="18">-0.5,-0.5,0.95319044</node>
			<node id="19">-0.5,-0.5,0.97301704</node>
			<node id="20">-0.5,-0.5,0.98826828</node>
<!-- ... 144 like lines cut -->
		</Nodes>
		<Elements type="hex8" name="Part10">
			<elem id="1">1,43,64,22,2,44,65,23</elem>
			<elem id="2">2,44,65,23,3,45,66,24</elem>
			<elem id="3">3,45,66,24,4,46,67,25</elem>
			<elem id="4">4,46,67,25,5,47,68,26</elem>
			<elem id="5">5,47,68,26,6,48,69,27</elem>
			<elem id="6">6,48,69,27,7,49,70,28</elem>
			<elem id="7">7,49,70,28,8,50,71,29</elem>
			<elem id="8">8,50,71,29,9,51,72,30</elem>
			<elem id="9">9,51,72,30,10,52,73,31</elem>
			<elem id="10">10,52,73,31,11,53,74,32</elem>
			<elem id="11">11,53,74,32,12,54,75,33</elem>
			<elem id="12">12,54,75,33,13,55,76,34</elem>
			<elem id="13">13,55,76,34,14,56,77,35</elem>
			<elem id="14">14,56,77,35,15,57,78,36</elem>
			<elem id="15">15,57,78,36,16,58,79,37</elem>
			<elem id="16">16,58,79,37,17,59,80,38</elem>
			<elem id="17">17,59,80,38,18,60,81,39</elem>
			<elem id="18">18,60,81,39,19,61,82,40</elem>
			<elem id="19">19,61,82,40,20,62,83,41</elem>
			<elem id="20">20,62,83,41,21,63,84,42</elem>
		</Elements>
		<Elements type="hex8" name="Part11">
			<elem id="21">21,63,84,42,85,125,145,105</elem>
			<elem id="22">85,125,145,105,86,126,146,106</elem>
			<elem id="23">86,126,146,106,87,127,147,107</elem>
			<elem id="24">87,127,147,107,88,128,148,108</elem>
			<elem id="25">88,128,148,108,89,129,149,109</elem>
			<elem id="26">89,129,149,109,90,130,150,110</elem>
			<elem id="27">90,130,150,110,91,131,151,111</elem>
			<elem id="28">91,131,151,111,92,132,152,112</elem>
			<elem id="29">92,132,152,112,93,133,153,113</elem>
			<elem id="30">93,133,153,113,94,134,154,114</elem>
			<elem id="31">94,134,154,114,95,135,155,115</elem>
			<elem id="32">95,135,155,115,96,136,156,116</elem>
			<elem id="33">96,136,156,116,97,137,157,117</elem>
			<elem id="34">97,137,157,117,98,138,158,118</elem>
			<elem id="35">98,138,158,118,99,139,159,119</elem>
			<elem id="36">99,139,159,119,100,140,160,120</elem>
			<elem id="37">100,140,160,120,101,141,161,121</elem>
			<elem id="38">101,141,161,121,102,142,162,122</elem>
			<elem id="39">102,142,162,122,103,143,163,123</elem>
			<elem id="40">103,143,163,123,104,144,164,124</elem>
		</Elements>
		<NodeSet name="FixedDisplacement01">
			<n id="1"/>
			<n id="2"/>
			<n id="3"/>
			<n id="4"/>
			<n id="5"/>
			<n id="6"/>
			<n id="7"/>
			<n id="8"/>
			<n id="9"/>
			<n id="10"/>
			<n id="11"/>
			<n id="12"/>
			<n id="13"/>
			<n id="14"/>
			<n id="15"/>
			<n id="16"/>
			<n id="17"/>
			<n id="18"/>
			<n id="19"/>
			<n id="20"/>
<!-- ... 144 like lines cut -->
		</NodeSet>
		<NodeSet name="FixedDisplacement02">
			<n id="1"/>
			<n id="2"/>
			<n id="3"/>
			<n id="4"/>
			<n id="5"/>
			<n id="6"/>
			<n id="7"/>
			<n id="8"/>
			<n id="9"/>
			<n id="10"/>
			<n id="11"/>
			<n id="12"/>
			<n id="13"/>
			<n id="14"/>
			<n id="15"/>
			<n id="16"/>
			<n id="17"/>
			<n id="18"/>
			<n id="19"/>
			<n id="20"/>
<!-- ... 144 like lines cut -->
		</NodeSet>
		<NodeSet name="FixedDisplacement03">
			<n id="1"/>
			<n id="22"/>
			<n id="43"/>
			<n id="64"/>
		</NodeSet>
		<NodeSet name="PrescribedBC01">
			<n id="104"/>
			<n id="124"/>
			<n id="144"/>
			<n id="164"/>
		</NodeSet>
		<NodeSet name="PrescribedBC02">
			<n id="104"/>
			<n id="124"/>
			<n id="144"/>
			<n id="164"/>
		</NodeSet>
		<NodeSet name="PrescribedBC03">
			<n id="1"/>
			<n id="22"/>
			<n id="43"/>
			<n id="64"/>
		</NodeSet>
		<NodeSet name="InitialConcentration01">
			<n id="21"/>
			<n id="42"/>
			<n id="63"/>
			<n id="84"/>
			<n id="85"/>
			<n id="86"/>
			<n id="87"/>
			<n id="88"/>
			<n id="89"/>
			<n id="90"/>
			<n id="91"/>
			<n id="92"/>
			<n id="93"/>
			<n id="94"/>
			<n id="95"/>
			<n id="96"/>
			<n id="97"/>
			<n id="98"/>
			<n id="99"/>
			<n id="100"/>
<!-- ... 64 like lines cut -->
		</NodeSet>
		<NodeSet name="InitialConcentration02">
			<n id="1"/>
			<n id="2"/>
			<n id="3"/>
			<n id="4"/>
			<n id="5"/>
			<n id="6"/>
			<n id="7"/>
			<n id="8"/>
			<n id="9"/>
			<n id="10"/>
			<n id="11"/>
			<n id="12"/>
			<n id="13"/>
			<n id="14"/>
			<n id="15"/>
			<n id="16"/>
			<n id="17"/>
			<n id="18"/>
			<n id="19"/>
			<n id="20"/>
<!-- ... 64 like lines cut -->
		</NodeSet>
		<NodeSet name="InitialConcentration03">
			<n id="1"/>
			<n id="2"/>
			<n id="3"/>
			<n id="4"/>
			<n id="5"/>
			<n id="6"/>
			<n id="7"/>
			<n id="8"/>
			<n id="9"/>
			<n id="10"/>
			<n id="11"/>
			<n id="12"/>
			<n id="13"/>
			<n id="14"/>
			<n id="15"/>
			<n id="16"/>
			<n id="17"/>
			<n id="18"/>
			<n id="19"/>
			<n id="20"/>
<!-- ... 64 like lines cut -->
		</NodeSet>
		<NodeSet name="InitialFluidPressure01">
			<n id="21"/>
			<n id="42"/>
			<n id="63"/>
			<n id="84"/>
			<n id="85"/>
			<n id="86"/>
			<n id="87"/>
			<n id="88"/>
			<n id="89"/>
			<n id="90"/>
			<n id="91"/>
			<n id="92"/>
			<n id="93"/>
			<n id="94"/>
			<n id="95"/>
			<n id="96"/>
			<n id="97"/>
			<n id="98"/>
			<n id="99"/>
			<n id="100"/>
<!-- ... 64 like lines cut -->
		</NodeSet>
		<NodeSet name="InitialFluidPressure02">
			<n id="1"/>
			<n id="2"/>
			<n id="3"/>
			<n id="4"/>
			<n id="5"/>
			<n id="6"/>
			<n id="7"/>
			<n id="8"/>
			<n id="9"/>
			<n id="10"/>
			<n id="11"/>
			<n id="12"/>
			<n id="13"/>
			<n id="14"/>
			<n id="15"/>
			<n id="16"/>
			<n id="17"/>
			<n id="18"/>
			<n id="19"/>
			<n id="20"/>
<!-- ... 64 like lines cut -->
		</NodeSet>
		<ElementSet name="unnamed_set01">
			<e id="21"/>
		</ElementSet>
	</Mesh>
	<MeshDomains>
		<SolidDomain name="Part10" mat="Triphasic"/>
		<SolidDomain name="Part11" mat="Biphasic-Solute"/>
	</MeshDomains>
	<Boundary>
		<bc name="FixedDisplacement01" type="fix" node_set="FixedDisplacement01">
			<dofs>x</dofs>
		</bc>
		<bc name="FixedDisplacement02" type="fix" node_set="FixedDisplacement02">
			<dofs>y</dofs>
		</bc>
		<bc name="FixedDisplacement03" type="fix" node_set="FixedDisplacement03">
			<dofs>z</dofs>
		</bc>
		<bc name="PrescribedBC01" type="prescribe" node_set="PrescribedBC01">
			<dof>c1</dof>
			<scale lc="2">1</scale>
			<relative>0</relative>
		</bc>
		<bc name="PrescribedBC02" type="prescribe" node_set="PrescribedBC02">
			<dof>p</dof>
			<scale lc="3">1</scale>
			<relative>0</relative>
		</bc>
		<bc name="PrescribedBC03" type="prescribe" node_set="PrescribedBC03">
			<dof>c3</dof>
			<scale lc="4">1</scale>
			<relative>0</relative>
		</bc>
	</Boundary>
	<Initial>
		<ic type="init_dof" node_set="InitialConcentration01">
			<dof>c1</dof>
			<value>300</value>
		</ic>
		<ic type="init_dof" node_set="InitialConcentration02">
			<dof>c2</dof>
			<value>150</value>
		</ic>
		<ic type="init_dof" node_set="InitialConcentration03">
			<dof>c3</dof>
			<value>150</value>
		</ic>
		<ic type="init_dof" node_set="InitialFluidPressure01">
			<dof>p</dof>
			<value>-0.730801</value>
		</ic>
		<ic type="init_dof" node_set="InitialFluidPressure02">
			<dof>p</dof>
			<value>-0.730801</value>
		</ic>
	</Initial>
	<LoadData>
		<load_controller id="1" type="loadcurve">
			<interpolate>STEP</interpolate>
			<points>
				<point>0,0</point>
				<point>1,0.1</point>
				<point>10,1</point>
				<point>100,10</point>
				<point>1000,100</point>
				<point>10000,1000</point>
			</points>
		</load_controller>
		<load_controller id="2" type="loadcurve">
			<interpolate>LINEAR</interpolate>
			<points>
				<point>0,300</point>
				<point>1,600</point>
			</points>
		</load_controller>
		<load_controller id="3" type="loadcurve">
			<interpolate>LINEAR</interpolate>
			<points>
				<point>0,-0.7308006</point>
				<point>1,-1.4616012</point>
			</points>
		</load_controller>
		<load_controller id="4" type="loadcurve">
			<interpolate>STEP</interpolate>
			<points>
				<point>0,0</point>
				<point>1,150</point>
			</points>
		</load_controller>
	</LoadData>
	<Output>
		<plotfile type="febio">
			<var type="current density"/>
			<var type="displacement"/>
			<var type="reaction forces"/>
			<var type="relative volume"/>
			<var type="stress"/>
			<var type="effective fluid pressure"/>
			<var type="fluid pressure"/>
			<var type="fluid flux"/>
			<var type="effective solute concentration"/>
			<var type="electric potential"/>
			<var type="fixed charge density"/>
			<var type="solute concentration"/>
			<var type="solute flux"/>
		</plotfile>
		<logfile>
			<element_data data="sy" elem_set="unnamed_set01"/>
		</logfile>
	</Output>
</febio_spec>
