<?xml version="1.0" encoding="ISO-8859-1"?>
<febio_spec version="3.0">
	<Module type="solid"/>
	<Control>
		<analysis>STATIC</analysis>
		<time_steps>10</time_steps>
		<step_size>0.1</step_size>
		<solver>
			<max_refs>15</max_refs>
			<max_ups>10</max_ups>
			<diverge_reform>1</diverge_reform>
			<reform_each_time_step>1</reform_each_time_step>
			<dtol>0.001</dtol>
			<etol>0.01</etol>
			<rtol>0</rtol>
			<lstol>0.9</lstol>
			<min_residual>1e-20</min_residual>
			<qnmethod>BFGS</qnmethod>
			<rhoi>-2</rhoi>
		</solver>
		<time_stepper>
			<dtmin>0.01</dtmin>
			<dtmax>0.1</dtmax>
			<max_retries>5</max_retries>
			<opt_iter>10</opt_iter>
		</time_stepper>
	</Control>
	<Globals>
		<Constants>
			<T>0</T>
			<R>0</R>
			<Fc>0</Fc>
		</Constants>
	</Globals>
	<Material>
		<material id="1" name="Material1" type="neo-Hookean">
			<density>1</density>
			<E>10</E>
			<v>0</v>
		</material>
	</Material>
	<Mesh>
		<Nodes name="Object01">
			<node id="1">5,0,0</node>
			<node id="2">5.25,0,0</node>
			<node id="3">5.5,0,0</node>
			<node id="4">5.75,0,0</node>
			<node id="5">6,0,0</node>
			<node id="6">4.9759236,0.49008569,0</node>
			<node id="7">5.2247198,0.51458998,0</node>
			<node id="8">5.473516,0.53909426,0</node>
			<node id="9">5.7223122,0.56359855,0</node>
			<node id="10">5.9711084,0.58810283,0</node>
			<node id="11">4.9039264,0.97545159,0</node>
			<node id="12">5.1491227,1.0242242,0</node>
			<node id="13">5.394319,1.0729968,0</node>
			<node id="14">5.6395154,1.1217693,0</node>
			<node id="15">5.8847117,1.1705419,0</node>
			<node id="16">4.7847017,1.4514234,0</node>
			<node id="17">5.0239368,1.5239945,0</node>
			<node id="18">5.2631719,1.5965657,0</node>
			<node id="19">5.5024069,1.6691369,0</node>
			<node id="20">5.741642,1.741708,0</node>
<!-- ... 6448 like lines cut -->
		</Nodes>
		<Elements type="hex8" name="Part4">
			<elem id="1">1,2,7,6,321,322,327,326</elem>
			<elem id="2">2,3,8,7,322,323,328,327</elem>
			<elem id="3">3,4,9,8,323,324,329,328</elem>
			<elem id="4">4,5,10,9,324,325,330,329</elem>
			<elem id="5">6,7,12,11,326,327,332,331</elem>
			<elem id="6">7,8,13,12,327,328,333,332</elem>
			<elem id="7">8,9,14,13,328,329,334,333</elem>
			<elem id="8">9,10,15,14,329,330,335,334</elem>
			<elem id="9">11,12,17,16,331,332,337,336</elem>
			<elem id="10">12,13,18,17,332,333,338,337</elem>
			<elem id="11">13,14,19,18,333,334,339,338</elem>
			<elem id="12">14,15,20,19,334,335,340,339</elem>
			<elem id="13">16,17,22,21,336,337,342,341</elem>
			<elem id="14">17,18,23,22,337,338,343,342</elem>
			<elem id="15">18,19,24,23,338,339,344,343</elem>
			<elem id="16">19,20,25,24,339,340,345,344</elem>
			<elem id="17">21,22,27,26,341,342,347,346</elem>
			<elem id="18">22,23,28,27,342,343,348,347</elem>
			<elem id="19">23,24,29,28,343,344,349,348</elem>
			<elem id="20">24,25,30,29,344,345,350,349</elem>
<!-- ... 2540 like lines cut -->
		</Elements>
		<Elements type="hex8" name="Part5">
			<elem id="2561">3521,3539,3861,3587,3530,3552,3868,3588</elem>
			<elem id="2562">3539,3540,3862,3861,3552,3551,3869,3868</elem>
			<elem id="2563">3540,3541,3863,3862,3551,3550,3870,3869</elem>
			<elem id="2564">3541,3542,3864,3863,3550,3549,3871,3870</elem>
			<elem id="2565">3542,3543,3865,3864,3549,3548,3872,3871</elem>
			<elem id="2566">3543,3544,3866,3865,3548,3547,3873,3872</elem>
			<elem id="2567">3544,3545,3867,3866,3547,3546,3874,3873</elem>
			<elem id="2568">3545,3522,3553,3867,3546,3531,3566,3874</elem>
			<elem id="2569">3587,3861,3854,3586,3588,3868,3875,3589</elem>
			<elem id="2570">3861,3862,3855,3854,3868,3869,3876,3875</elem>
			<elem id="2571">3862,3863,3856,3855,3869,3870,3877,3876</elem>
			<elem id="2572">3863,3864,3857,3856,3870,3871,3878,3877</elem>
			<elem id="2573">3864,3865,3858,3857,3871,3872,3879,3878</elem>
			<elem id="2574">3865,3866,3859,3858,3872,3873,3880,3879</elem>
			<elem id="2575">3866,3867,3860,3859,3873,3874,3881,3880</elem>
			<elem id="2576">3867,3553,3554,3860,3874,3566,3565,3881</elem>
			<elem id="2577">3586,3854,3847,3585,3589,3875,3882,3590</elem>
			<elem id="2578">3854,3855,3848,3847,3875,3876,3883,3882</elem>
			<elem id="2579">3855,3856,3849,3848,3876,3877,3884,3883</elem>
			<elem id="2580">3856,3857,3850,3849,3877,3878,3885,3884</elem>
<!-- ... 748 like lines cut -->
		</Elements>
		<Elements type="hex8" name="Part6">
			<elem id="3329">4995,5013,5335,5061,5004,5026,5342,5062</elem>
			<elem id="3330">5013,5014,5336,5335,5026,5025,5343,5342</elem>
			<elem id="3331">5014,5015,5337,5336,5025,5024,5344,5343</elem>
			<elem id="3332">5015,5016,5338,5337,5024,5023,5345,5344</elem>
			<elem id="3333">5016,5017,5339,5338,5023,5022,5346,5345</elem>
			<elem id="3334">5017,5018,5340,5339,5022,5021,5347,5346</elem>
			<elem id="3335">5018,5019,5341,5340,5021,5020,5348,5347</elem>
			<elem id="3336">5019,4996,5027,5341,5020,5005,5040,5348</elem>
			<elem id="3337">5061,5335,5328,5060,5062,5342,5349,5063</elem>
			<elem id="3338">5335,5336,5329,5328,5342,5343,5350,5349</elem>
			<elem id="3339">5336,5337,5330,5329,5343,5344,5351,5350</elem>
			<elem id="3340">5337,5338,5331,5330,5344,5345,5352,5351</elem>
			<elem id="3341">5338,5339,5332,5331,5345,5346,5353,5352</elem>
			<elem id="3342">5339,5340,5333,5332,5346,5347,5354,5353</elem>
			<elem id="3343">5340,5341,5334,5333,5347,5348,5355,5354</elem>
			<elem id="3344">5341,5027,5028,5334,5348,5040,5039,5355</elem>
			<elem id="3345">5060,5328,5321,5059,5063,5349,5356,5064</elem>
			<elem id="3346">5328,5329,5322,5321,5349,5350,5357,5356</elem>
			<elem id="3347">5329,5330,5323,5322,5350,5351,5358,5357</elem>
			<elem id="3348">5330,5331,5324,5323,5351,5352,5359,5358</elem>
<!-- ... 748 like lines cut -->
		</Elements>
		<NodeSet name="FixedDisplacement01">
			<n id="5"/>
			<n id="10"/>
			<n id="15"/>
			<n id="20"/>
			<n id="25"/>
			<n id="30"/>
			<n id="35"/>
			<n id="40"/>
			<n id="45"/>
			<n id="50"/>
			<n id="55"/>
			<n id="60"/>
			<n id="65"/>
			<n id="70"/>
			<n id="75"/>
			<n id="80"/>
			<n id="85"/>
			<n id="90"/>
			<n id="95"/>
			<n id="100"/>
<!-- ... 44 like lines cut -->
		</NodeSet>
		<NodeSet name="FixedDisplacement02">
			<n id="3205"/>
			<n id="3210"/>
			<n id="3215"/>
			<n id="3220"/>
			<n id="3225"/>
			<n id="3230"/>
			<n id="3235"/>
			<n id="3240"/>
			<n id="3245"/>
			<n id="3250"/>
			<n id="3255"/>
			<n id="3260"/>
			<n id="3265"/>
			<n id="3270"/>
			<n id="3275"/>
			<n id="3280"/>
			<n id="3285"/>
			<n id="3290"/>
			<n id="3295"/>
			<n id="3300"/>
<!-- ... 44 like lines cut -->
		</NodeSet>
		<NodeSet name="unnamed_set01">
			<n id="3525"/>
		</NodeSet>
		<NodeSet name="unnamed_set01">
			<n id="3525"/>
		</NodeSet>
		<Surface name="pressure">
			<quad4 id="1">3201,3202,3207,3206</quad4>
			<quad4 id="2">3202,3203,3208,3207</quad4>
			<quad4 id="3">3203,3204,3209,3208</quad4>
			<quad4 id="4">3204,3205,3210,3209</quad4>
			<quad4 id="5">3206,3207,3212,3211</quad4>
			<quad4 id="6">3207,3208,3213,3212</quad4>
			<quad4 id="7">3208,3209,3214,3213</quad4>
			<quad4 id="8">3209,3210,3215,3214</quad4>
			<quad4 id="9">3211,3212,3217,3216</quad4>
			<quad4 id="10">3212,3213,3218,3217</quad4>
			<quad4 id="11">3213,3214,3219,3218</quad4>
			<quad4 id="12">3214,3215,3220,3219</quad4>
			<quad4 id="13">3216,3217,3222,3221</quad4>
			<quad4 id="14">3217,3218,3223,3222</quad4>
			<quad4 id="15">3218,3219,3224,3223</quad4>
			<quad4 id="16">3219,3220,3225,3224</quad4>
			<quad4 id="17">3221,3222,3227,3226</quad4>
			<quad4 id="18">3222,3223,3228,3227</quad4>
			<quad4 id="19">3223,3224,3229,3228</quad4>
			<quad4 id="20">3224,3225,3230,3229</quad4>
<!-- ... 1004 like lines cut -->
		</Surface>
		<Surface name="VolumeConstraintSurface01">
			<quad4 id="1">326,321,641,646</quad4>
			<quad4 id="2">331,326,646,651</quad4>
			<quad4 id="3">336,331,651,656</quad4>
			<quad4 id="4">341,336,656,661</quad4>
			<quad4 id="5">346,341,661,666</quad4>
			<quad4 id="6">351,346,666,671</quad4>
			<quad4 id="7">356,351,671,676</quad4>
			<quad4 id="8">361,356,676,681</quad4>
			<quad4 id="9">366,361,681,686</quad4>
			<quad4 id="10">371,366,686,691</quad4>
			<quad4 id="11">376,371,691,696</quad4>
			<quad4 id="12">381,376,696,701</quad4>
			<quad4 id="13">386,381,701,706</quad4>
			<quad4 id="14">391,386,706,711</quad4>
			<quad4 id="15">396,391,711,716</quad4>
			<quad4 id="16">401,396,716,721</quad4>
			<quad4 id="17">406,401,721,726</quad4>
			<quad4 id="18">411,406,726,731</quad4>
			<quad4 id="19">416,411,731,736</quad4>
			<quad4 id="20">421,416,736,741</quad4>
<!-- ... 2028 like lines cut -->
		</Surface>
	</Mesh>
	<MeshDomains>
		<SolidDomain name="Part4" mat="Material1"/>
		<SolidDomain name="Part5" mat="Material1"/>
		<SolidDomain name="Part6" mat="Material1"/>
	</MeshDomains>
	<Boundary>
		<bc name="FixedDisplacement01" type="fix" node_set="FixedDisplacement01">
			<dofs>x,y,z</dofs>
		</bc>
		<bc name="FixedDisplacement02" type="fix" node_set="FixedDisplacement02">
			<dofs>x,y</dofs>
		</bc>
	</Boundary>
	<Loads>
		<surface_load name="PressureLoad1" type="pressure" surface="pressure">
			<pressure lc="1">1</pressure>
			<linear>0</linear>
			<symmetric_stiffness>1</symmetric_stiffness>
		</surface_load>
	</Loads>
	<Constraints>
		<constraint type="volume" name="VolumeConstraint02" surface="VolumeConstraintSurface01">
			<laugon>1</laugon>
			<augtol>0.01</augtol>
			<penalty>-0.0001</penalty>
		</constraint>
	</Constraints>
	<LoadData>
		<load_controller id="1" type="loadcurve">
			<interpolate>SMOOTH</interpolate>
			<points>
				<point>0,0</point>
				<point>1,0.01</point>
			</points>
		</load_controller>
	</LoadData>
	<Output>
		<plotfile type="febio">
			<var type="displacement"/>
			<var type="stress"/>
		</plotfile>
		<logfile>
			<node_data data="uz" node_set="unnamed_set01"/>
		</logfile>
	</Output>
</febio_spec>
